/*---------------------------------------------------------------------------*\
| =========                 |                                                 |
| \\      /  F ield         | OpenFOAM: The Open Source CFD Toolbox           |
|  \\    /   O peration     | Version:  2.3.0                                 |
|   \\  /    A nd           | Web:      www.OpenFOAM.org                      |
|    \\/     M anipulation  |                                                 |
\*---------------------------------------------------------------------------*/
Build  : 2.3.0-f5222ca19ce6
Exec   : simpleFoam -case Runs/flatplate_1_75/case
Date   : Jan 08 2015
Time   : 19:15:43
Host   : "lordvon-XPS-8300"
PID    : 8077
Case   : Runs/flatplate_1_75/case
nProcs : 1
sigFpe : Enabling floating point exception trapping (FOAM_SIGFPE).
fileModificationChecking : Monitoring run-time modified files using timeStampMaster
allowSystemOperations : Disallowing user-supplied system call operations

// * * * * * * * * * * * * * * * * * * * * * * * * * * * * * * * * * * * * * //
Create time

Create mesh for time = 0

Reading field p

Reading field U

Reading/calculating face flux field phi

Selecting incompressible transport model Newtonian
Selecting RAS turbulence model SpalartAllmaras
SpalartAllmarasCoeffs
{
    sigmaNut        0.66666;
    kappa           0.41;
    Cb1             0.1355;
    Cb2             0.622;
    Cw2             0.3;
    Cw3             2;
    Cv1             7.1;
    Cv2             5;
}

    Employing Ashford correction
No finite volume options present


SIMPLE: convergence criteria
    field p	 tolerance 1e-12
    field U	 tolerance 1e-12
    field nuTilda	 tolerance 1e-12


Starting time loop

forces wings:
    Not including porosity effects

Time = 1

smoothSolver:  Solving for Ux, Initial residual = 1, Final residual = 0.0195264, No Iterations 4
smoothSolver:  Solving for Uy, Initial residual = 1, Final residual = 0.0828854, No Iterations 2
GAMG:  Solving for p, Initial residual = 1, Final residual = 0.0500294, No Iterations 2
time step continuity errors : sum local = 0.00441767, global = 1.47698e-16, cumulative = 1.47698e-16
smoothSolver:  Solving for nuTilda, Initial residual = 1, Final residual = 0.0180341, No Iterations 2
ExecutionTime = 0.08 s  ClockTime = 0 s

Time = 2

smoothSolver:  Solving for Ux, Initial residual = 0.281674, Final residual = 0.00837076, No Iterations 4
smoothSolver:  Solving for Uy, Initial residual = 0.482061, Final residual = 0.0319579, No Iterations 4
GAMG:  Solving for p, Initial residual = 0.674261, Final residual = 0.0269897, No Iterations 2
time step continuity errors : sum local = 0.0042004, global = -6.6072e-17, cumulative = 8.16261e-17
smoothSolver:  Solving for nuTilda, Initial residual = 0.177917, Final residual = 0.0113106, No Iterations 2
ExecutionTime = 0.09 s  ClockTime = 0 s

Time = 3

smoothSolver:  Solving for Ux, Initial residual = 0.158957, Final residual = 0.00612406, No Iterations 4
smoothSolver:  Solving for Uy, Initial residual = 0.178403, Final residual = 0.0110803, No Iterations 4
GAMG:  Solving for p, Initial residual = 0.470332, Final residual = 0.0201639, No Iterations 2
time step continuity errors : sum local = 0.00407317, global = 7.59673e-17, cumulative = 1.57593e-16
smoothSolver:  Solving for nuTilda, Initial residual = 0.0798875, Final residual = 0.00216722, No Iterations 4
ExecutionTime = 0.1 s  ClockTime = 0 s

Time = 4

smoothSolver:  Solving for Ux, Initial residual = 0.107435, Final residual = 0.0044581, No Iterations 4
smoothSolver:  Solving for Uy, Initial residual = 0.0724396, Final residual = 0.00399553, No Iterations 4
GAMG:  Solving for p, Initial residual = 0.331883, Final residual = 0.0152971, No Iterations 2
time step continuity errors : sum local = 0.00346986, global = -1.64224e-16, cumulative = -6.63066e-18
smoothSolver:  Solving for nuTilda, Initial residual = 0.0518542, Final residual = 0.00204504, No Iterations 4
ExecutionTime = 0.12 s  ClockTime = 0 s

Time = 5

smoothSolver:  Solving for Ux, Initial residual = 0.0756084, Final residual = 0.00301515, No Iterations 4
smoothSolver:  Solving for Uy, Initial residual = 0.0703683, Final residual = 0.00375486, No Iterations 4
GAMG:  Solving for p, Initial residual = 0.253163, Final residual = 0.0120451, No Iterations 2
time step continuity errors : sum local = 0.00294263, global = -1.13452e-16, cumulative = -1.20083e-16
smoothSolver:  Solving for nuTilda, Initial residual = 0.0393205, Final residual = 0.00174551, No Iterations 4
ExecutionTime = 0.13 s  ClockTime = 0 s

forces wings output:
    sum of forces:
        pressure : (-0.513349 -29.4098 -1.84386e-20)
        viscous  : (0.476815 -0.0124609 2.92864e-21)
        porous   : (0 0 0)
    sum of moments:
        pressure : (1.47049 -0.0256675 -8.31885)
        viscous  : (0.000623044 0.0238408 -0.00103548)
        porous   : (0 0 0)

Time = 6

smoothSolver:  Solving for Ux, Initial residual = 0.0601949, Final residual = 0.00231548, No Iterations 4
smoothSolver:  Solving for Uy, Initial residual = 0.0971005, Final residual = 0.00552499, No Iterations 4
GAMG:  Solving for p, Initial residual = 0.22368, Final residual = 0.0151417, No Iterations 2
time step continuity errors : sum local = 0.00398956, global = 2.62964e-16, cumulative = 1.42881e-16
smoothSolver:  Solving for nuTilda, Initial residual = 0.0312387, Final residual = 0.00142883, No Iterations 4
ExecutionTime = 0.15 s  ClockTime = 0 s

Time = 7

smoothSolver:  Solving for Ux, Initial residual = 0.0503593, Final residual = 0.00198665, No Iterations 4
smoothSolver:  Solving for Uy, Initial residual = 0.108815, Final residual = 0.00654546, No Iterations 4
GAMG:  Solving for p, Initial residual = 0.184116, Final residual = 0.0122689, No Iterations 2
time step continuity errors : sum local = 0.0033883, global = -3.90977e-17, cumulative = 1.03783e-16
smoothSolver:  Solving for nuTilda, Initial residual = 0.0254352, Final residual = 0.00116448, No Iterations 4
bounding nuTilda, min: -0.000660395 max: 0.329422 average: 0.103116
ExecutionTime = 0.17 s  ClockTime = 0 s

Time = 8

smoothSolver:  Solving for Ux, Initial residual = 0.0418129, Final residual = 0.00163805, No Iterations 4
smoothSolver:  Solving for Uy, Initial residual = 0.118306, Final residual = 0.00635893, No Iterations 4
GAMG:  Solving for p, Initial residual = 0.149623, Final residual = 0.00786445, No Iterations 2
time step continuity errors : sum local = 0.00222129, global = 2.10318e-16, cumulative = 3.14101e-16
smoothSolver:  Solving for nuTilda, Initial residual = 0.0211132, Final residual = 0.000960355, No Iterations 4
bounding nuTilda, min: -0.00138632 max: 0.345986 average: 0.100953
ExecutionTime = 0.18 s  ClockTime = 0 s

Time = 9

smoothSolver:  Solving for Ux, Initial residual = 0.0334828, Final residual = 0.00121754, No Iterations 4
smoothSolver:  Solving for Uy, Initial residual = 0.0782801, Final residual = 0.00394841, No Iterations 4
GAMG:  Solving for p, Initial residual = 0.1455, Final residual = 0.0107457, No Iterations 2
time step continuity errors : sum local = 0.0031015, global = 1.07875e-16, cumulative = 4.21976e-16
smoothSolver:  Solving for nuTilda, Initial residual = 0.0177408, Final residual = 0.000799663, No Iterations 4
bounding nuTilda, min: -0.00425233 max: 0.35874 average: 0.0990491
ExecutionTime = 0.19 s  ClockTime = 0 s

Time = 10

smoothSolver:  Solving for Ux, Initial residual = 0.0290216, Final residual = 0.00107877, No Iterations 4
smoothSolver:  Solving for Uy, Initial residual = 0.0450153, Final residual = 0.00249425, No Iterations 4
GAMG:  Solving for p, Initial residual = 0.130553, Final residual = 0.0106723, No Iterations 2
time step continuity errors : sum local = 0.00312887, global = 6.95826e-17, cumulative = 4.91559e-16
smoothSolver:  Solving for nuTilda, Initial residual = 0.0150127, Final residual = 0.000666963, No Iterations 4
bounding nuTilda, min: -0.0073071 max: 0.368257 average: 0.0973495
ExecutionTime = 0.2 s  ClockTime = 0 s

forces wings output:
    sum of forces:
        pressure : (0.0972484 5.57136 -5.85222e-21)
        viscous  : (0.42309 -0.0190488 -1.36482e-21)
        porous   : (0 0 0)
    sum of moments:
        pressure : (-0.278568 0.00486242 1.55433)
        viscous  : (0.000952442 0.0211545 -0.00306075)
        porous   : (0 0 0)

Time = 11

smoothSolver:  Solving for Ux, Initial residual = 0.026298, Final residual = 0.000993073, No Iterations 4
smoothSolver:  Solving for Uy, Initial residual = 0.0452049, Final residual = 0.00249284, No Iterations 4
GAMG:  Solving for p, Initial residual = 0.110812, Final residual = 0.00723159, No Iterations 2
time step continuity errors : sum local = 0.00213838, global = -1.7081e-16, cumulative = 3.20749e-16
smoothSolver:  Solving for nuTilda, Initial residual = 0.0128301, Final residual = 0.000561371, No Iterations 4
bounding nuTilda, min: -0.00766045 max: 0.375182 average: 0.095818
ExecutionTime = 0.22 s  ClockTime = 0 s

Time = 12

smoothSolver:  Solving for Ux, Initial residual = 0.0236144, Final residual = 0.000867808, No Iterations 4
smoothSolver:  Solving for Uy, Initial residual = 0.0640252, Final residual = 0.00320759, No Iterations 4
GAMG:  Solving for p, Initial residual = 0.105502, Final residual = 0.00849307, No Iterations 2
time step continuity errors : sum local = 0.00252944, global = -1.8242e-16, cumulative = 1.38328e-16
smoothSolver:  Solving for nuTilda, Initial residual = 0.0110514, Final residual = 0.000474316, No Iterations 4
bounding nuTilda, min: -0.00771612 max: 0.380078 average: 0.0944218
ExecutionTime = 0.23 s  ClockTime = 0 s

Time = 13

smoothSolver:  Solving for Ux, Initial residual = 0.019454, Final residual = 0.000659049, No Iterations 4
smoothSolver:  Solving for Uy, Initial residual = 0.0842604, Final residual = 0.00417307, No Iterations 4
GAMG:  Solving for p, Initial residual = 0.0946382, Final residual = 0.00740312, No Iterations 2
time step continuity errors : sum local = 0.00221335, global = 1.95989e-16, cumulative = 3.34318e-16
smoothSolver:  Solving for nuTilda, Initial residual = 0.00956992, Final residual = 0.00040379, No Iterations 4
bounding nuTilda, min: -0.0076181 max: 0.383428 average: 0.0931393
ExecutionTime = 0.25 s  ClockTime = 0 s

Time = 14

smoothSolver:  Solving for Ux, Initial residual = 0.0163084, Final residual = 0.000570955, No Iterations 4
smoothSolver:  Solving for Uy, Initial residual = 0.0958875, Final residual = 0.00469686, No Iterations 4
GAMG:  Solving for p, Initial residual = 0.0798491, Final residual = 0.00449694, No Iterations 2
time step continuity errors : sum local = 0.00134178, global = -1.28554e-16, cumulative = 2.05764e-16
smoothSolver:  Solving for nuTilda, Initial residual = 0.00834235, Final residual = 0.000347403, No Iterations 4
bounding nuTilda, min: -0.00742866 max: 0.386284 average: 0.0919522
ExecutionTime = 0.27 s  ClockTime = 0 s

Time = 15

smoothSolver:  Solving for Ux, Initial residual = 0.0162041, Final residual = 0.000666601, No Iterations 4
smoothSolver:  Solving for Uy, Initial residual = 0.0815606, Final residual = 0.00403744, No Iterations 4
GAMG:  Solving for p, Initial residual = 0.074724, Final residual = 0.00609899, No Iterations 2
time step continuity errors : sum local = 0.00181775, global = -2.10721e-16, cumulative = -4.95785e-18
smoothSolver:  Solving for nuTilda, Initial residual = 0.00725242, Final residual = 0.000302696, No Iterations 4
bounding nuTilda, min: -0.00720377 max: 0.39059 average: 0.0908468
ExecutionTime = 0.28 s  ClockTime = 0 s

forces wings output:
    sum of forces:
        pressure : (-0.0300528 -1.72172 8.06258e-24)
        viscous  : (0.360573 -0.00827736 7.24795e-22)
        porous   : (0 0 0)
    sum of moments:
        pressure : (0.0860862 -0.00150264 -0.858881)
        viscous  : (0.000413868 0.0180287 -0.000532961)
        porous   : (0 0 0)

Time = 16

smoothSolver:  Solving for Ux, Initial residual = 0.0144409, Final residual = 0.000604248, No Iterations 4
smoothSolver:  Solving for Uy, Initial residual = 0.0537899, Final residual = 0.00283718, No Iterations 4
GAMG:  Solving for p, Initial residual = 0.0682767, Final residual = 0.00603777, No Iterations 2
time step continuity errors : sum local = 0.00179897, global = 1.03458e-16, cumulative = 9.85004e-17
smoothSolver:  Solving for nuTilda, Initial residual = 0.0062921, Final residual = 0.000267276, No Iterations 4
bounding nuTilda, min: -0.00697249 max: 0.393615 average: 0.0898102
ExecutionTime = 0.3 s  ClockTime = 0 s

Time = 17

smoothSolver:  Solving for Ux, Initial residual = 0.0115592, Final residual = 0.000425888, No Iterations 4
smoothSolver:  Solving for Uy, Initial residual = 0.0373498, Final residual = 0.00190541, No Iterations 4
GAMG:  Solving for p, Initial residual = 0.0585022, Final residual = 0.00493322, No Iterations 2
time step continuity errors : sum local = 0.00146355, global = 7.76817e-17, cumulative = 1.76182e-16
smoothSolver:  Solving for nuTilda, Initial residual = 0.00544077, Final residual = 0.000240206, No Iterations 4
bounding nuTilda, min: -0.00674674 max: 0.395565 average: 0.0888355
ExecutionTime = 0.31 s  ClockTime = 0 s

Time = 18

smoothSolver:  Solving for Ux, Initial residual = 0.00967181, Final residual = 0.000378049, No Iterations 4
smoothSolver:  Solving for Uy, Initial residual = 0.0495261, Final residual = 0.00245684, No Iterations 4
GAMG:  Solving for p, Initial residual = 0.054996, Final residual = 0.00454091, No Iterations 2
time step continuity errors : sum local = 0.00134925, global = -1.91795e-16, cumulative = -1.56132e-17
smoothSolver:  Solving for nuTilda, Initial residual = 0.00476006, Final residual = 0.000220212, No Iterations 4
bounding nuTilda, min: -0.00653732 max: 0.39673 average: 0.0879144
ExecutionTime = 0.32 s  ClockTime = 0 s

Time = 19

smoothSolver:  Solving for Ux, Initial residual = 0.00896447, Final residual = 0.000408295, No Iterations 4
smoothSolver:  Solving for Uy, Initial residual = 0.0524105, Final residual = 0.00265237, No Iterations 4
GAMG:  Solving for p, Initial residual = 0.0496443, Final residual = 0.00327677, No Iterations 2
time step continuity errors : sum local = 0.000977197, global = -1.69567e-16, cumulative = -1.8518e-16
smoothSolver:  Solving for nuTilda, Initial residual = 0.00419184, Final residual = 0.000204576, No Iterations 4
bounding nuTilda, min: -0.00634393 max: 0.397411 average: 0.0870409
ExecutionTime = 0.34 s  ClockTime = 0 s

Time = 20

smoothSolver:  Solving for Ux, Initial residual = 0.00772895, Final residual = 0.000371123, No Iterations 4
smoothSolver:  Solving for Uy, Initial residual = 0.0440429, Final residual = 0.00221382, No Iterations 4
GAMG:  Solving for p, Initial residual = 0.0434139, Final residual = 0.00292695, No Iterations 2
time step continuity errors : sum local = 0.000876084, global = 1.10638e-16, cumulative = -7.45417e-17
smoothSolver:  Solving for nuTilda, Initial residual = 0.00370612, Final residual = 0.00019139, No Iterations 4
bounding nuTilda, min: -0.00616737 max: 0.397857 average: 0.0862115
ExecutionTime = 0.35 s  ClockTime = 0 s

forces wings output:
    sum of forces:
        pressure : (0.0453156 2.59613 -2.13e-20)
        viscous  : (0.313662 -0.00469039 7.04711e-22)
        porous   : (0 0 0)
    sum of moments:
        pressure : (-0.129806 0.00226578 0.121505)
        viscous  : (0.000234519 0.0156831 0.000141294)
        porous   : (0 0 0)

Time = 21

smoothSolver:  Solving for Ux, Initial residual = 0.00606107, Final residual = 0.000272893, No Iterations 4
smoothSolver:  Solving for Uy, Initial residual = 0.0305474, Final residual = 0.00159449, No Iterations 4
GAMG:  Solving for p, Initial residual = 0.0399577, Final residual = 0.00335898, No Iterations 2
time step continuity errors : sum local = 0.00100359, global = -6.27292e-17, cumulative = -1.37271e-16
smoothSolver:  Solving for nuTilda, Initial residual = 0.00331274, Final residual = 0.000179636, No Iterations 4
bounding nuTilda, min: -0.00600624 max: 0.398229 average: 0.0854233
ExecutionTime = 0.37 s  ClockTime = 0 s

Time = 22

smoothSolver:  Solving for Ux, Initial residual = 0.00510125, Final residual = 0.000228156, No Iterations 4
smoothSolver:  Solving for Uy, Initial residual = 0.0262515, Final residual = 0.00142825, No Iterations 4
GAMG:  Solving for p, Initial residual = 0.0350541, Final residual = 0.00258049, No Iterations 2
time step continuity errors : sum local = 0.000771186, global = -2.06011e-16, cumulative = -3.43282e-16
smoothSolver:  Solving for nuTilda, Initial residual = 0.00298143, Final residual = 0.000168757, No Iterations 4
bounding nuTilda, min: -0.00585654 max: 0.39856 average: 0.0846718
ExecutionTime = 0.38 s  ClockTime = 0 s

Time = 23

smoothSolver:  Solving for Ux, Initial residual = 0.00458702, Final residual = 0.000216569, No Iterations 4
smoothSolver:  Solving for Uy, Initial residual = 0.0289142, Final residual = 0.00143733, No Iterations 4
GAMG:  Solving for p, Initial residual = 0.0300815, Final residual = 0.00165628, No Iterations 2
time step continuity errors : sum local = 0.000494996, global = -9.4861e-17, cumulative = -4.38143e-16
smoothSolver:  Solving for nuTilda, Initial residual = 0.00271895, Final residual = 0.000158723, No Iterations 4
bounding nuTilda, min: -0.00571651 max: 0.398808 average: 0.0839543
ExecutionTime = 0.4 s  ClockTime = 0 s

Time = 24

smoothSolver:  Solving for Ux, Initial residual = 0.00399339, Final residual = 0.000192655, No Iterations 4
smoothSolver:  Solving for Uy, Initial residual = 0.0278006, Final residual = 0.00132384, No Iterations 4
GAMG:  Solving for p, Initial residual = 0.0267897, Final residual = 0.00190687, No Iterations 2
time step continuity errors : sum local = 0.000565307, global = 1.22358e-17, cumulative = -4.25907e-16
smoothSolver:  Solving for nuTilda, Initial residual = 0.00251231, Final residual = 0.000149743, No Iterations 4
bounding nuTilda, min: -0.00558546 max: 0.398915 average: 0.0832684
ExecutionTime = 0.41 s  ClockTime = 0 s

Time = 25

smoothSolver:  Solving for Ux, Initial residual = 0.00339247, Final residual = 0.000157436, No Iterations 4
smoothSolver:  Solving for Uy, Initial residual = 0.0227371, Final residual = 0.00110305, No Iterations 4
GAMG:  Solving for p, Initial residual = 0.0237198, Final residual = 0.00201464, No Iterations 2
time step continuity errors : sum local = 0.000595181, global = 1.19656e-16, cumulative = -3.06252e-16
smoothSolver:  Solving for nuTilda, Initial residual = 0.00234096, Final residual = 0.000141591, No Iterations 4
bounding nuTilda, min: -0.00546304 max: 0.398854 average: 0.0826121
ExecutionTime = 0.42 s  ClockTime = 0 s

forces wings output:
    sum of forces:
        pressure : (0.0297554 1.70469 -7.89269e-21)
        viscous  : (0.289725 -0.00444102 -2.04212e-22)
        porous   : (0 0 0)
    sum of moments:
        pressure : (-0.0852344 0.00148777 0.361018)
        viscous  : (0.000222051 0.0144863 0.000178235)
        porous   : (0 0 0)

Time = 26

smoothSolver:  Solving for Ux, Initial residual = 0.0031734, Final residual = 0.000144937, No Iterations 4
smoothSolver:  Solving for Uy, Initial residual = 0.0181154, Final residual = 0.000926847, No Iterations 4
GAMG:  Solving for p, Initial residual = 0.0208723, Final residual = 0.00170273, No Iterations 2
time step continuity errors : sum local = 0.000504154, global = 2.37041e-16, cumulative = -6.92111e-17
smoothSolver:  Solving for nuTilda, Initial residual = 0.00219967, Final residual = 0.000133956, No Iterations 4
bounding nuTilda, min: -0.00535035 max: 0.398645 average: 0.0819829
ExecutionTime = 0.44 s  ClockTime = 0 s

Time = 27

smoothSolver:  Solving for Ux, Initial residual = 0.00336743, Final residual = 0.000163275, No Iterations 4
smoothSolver:  Solving for Uy, Initial residual = 0.0173834, Final residual = 0.000908583, No Iterations 4
GAMG:  Solving for p, Initial residual = 0.0197599, Final residual = 0.0013338, No Iterations 2
time step continuity errors : sum local = 0.000397695, global = 3.35625e-17, cumulative = -3.56486e-17
smoothSolver:  Solving for nuTilda, Initial residual = 0.00208162, Final residual = 0.000127006, No Iterations 4
bounding nuTilda, min: -0.00524669 max: 0.398351 average: 0.0813786
ExecutionTime = 0.45 s  ClockTime = 0 s

Time = 28

smoothSolver:  Solving for Ux, Initial residual = 0.00326367, Final residual = 0.000153103, No Iterations 4
smoothSolver:  Solving for Uy, Initial residual = 0.0169431, Final residual = 0.000907335, No Iterations 4
GAMG:  Solving for p, Initial residual = 0.0173658, Final residual = 0.000990331, No Iterations 2
time step continuity errors : sum local = 0.000298819, global = 1.10035e-16, cumulative = 7.43864e-17
smoothSolver:  Solving for nuTilda, Initial residual = 0.0019765, Final residual = 0.000120365, No Iterations 4
bounding nuTilda, min: -0.00515056 max: 0.398054 average: 0.0807983
ExecutionTime = 0.46 s  ClockTime = 0 s

Time = 29

smoothSolver:  Solving for Ux, Initial residual = 0.00283774, Final residual = 0.000126221, No Iterations 4
smoothSolver:  Solving for Uy, Initial residual = 0.0161225, Final residual = 0.000841583, No Iterations 4
GAMG:  Solving for p, Initial residual = 0.0142979, Final residual = 0.00102442, No Iterations 2
time step continuity errors : sum local = 0.000309564, global = 3.08993e-17, cumulative = 1.05286e-16
smoothSolver:  Solving for nuTilda, Initial residual = 0.0018747, Final residual = 0.000113632, No Iterations 4
bounding nuTilda, min: -0.00506141 max: 0.397819 average: 0.0802407
ExecutionTime = 0.48 s  ClockTime = 0 s

Time = 30

smoothSolver:  Solving for Ux, Initial residual = 0.00236626, Final residual = 0.000100905, No Iterations 4
smoothSolver:  Solving for Uy, Initial residual = 0.014154, Final residual = 0.000734069, No Iterations 4
GAMG:  Solving for p, Initial residual = 0.0130546, Final residual = 0.00104142, No Iterations 2
time step continuity errors : sum local = 0.000314071, global = 8.52498e-17, cumulative = 1.90535e-16
smoothSolver:  Solving for nuTilda, Initial residual = 0.0017751, Final residual = 0.000107288, No Iterations 4
bounding nuTilda, min: -0.00497829 max: 0.397685 average: 0.0797043
ExecutionTime = 0.49 s  ClockTime = 0 s

forces wings output:
    sum of forces:
        pressure : (0.0128653 0.737048 -5.70558e-21)
        viscous  : (0.275668 -0.00467198 2.71814e-22)
        porous   : (0 0 0)
    sum of moments:
        pressure : (-0.0368524 0.000643263 -0.185149)
        viscous  : (0.000233599 0.0137834 1.88401e-05)
        porous   : (0 0 0)

Time = 31

smoothSolver:  Solving for Ux, Initial residual = 0.00209353, Final residual = 9.31469e-05, No Iterations 4
smoothSolver:  Solving for Uy, Initial residual = 0.0115185, Final residual = 0.000609537, No Iterations 4
GAMG:  Solving for p, Initial residual = 0.0123238, Final residual = 0.000932507, No Iterations 2
time step continuity errors : sum local = 0.000274945, global = 2.93512e-16, cumulative = 4.84048e-16
smoothSolver:  Solving for nuTilda, Initial residual = 0.00167644, Final residual = 0.000101426, No Iterations 4
bounding nuTilda, min: -0.00489973 max: 0.397654 average: 0.0791871
ExecutionTime = 0.51 s  ClockTime = 0 s

Time = 32

smoothSolver:  Solving for Ux, Initial residual = 0.00193239, Final residual = 8.84446e-05, No Iterations 4
smoothSolver:  Solving for Uy, Initial residual = 0.0101021, Final residual = 0.00052633, No Iterations 4
GAMG:  Solving for p, Initial residual = 0.0107188, Final residual = 0.000831035, No Iterations 2
time step continuity errors : sum local = 0.000244906, global = -1.13291e-16, cumulative = 3.70757e-16
smoothSolver:  Solving for nuTilda, Initial residual = 0.00158603, Final residual = 9.62331e-05, No Iterations 4
bounding nuTilda, min: -0.0048269 max: 0.397703 average: 0.0786878
ExecutionTime = 0.52 s  ClockTime = 0 s

Time = 33

smoothSolver:  Solving for Ux, Initial residual = 0.00186671, Final residual = 8.54027e-05, No Iterations 4
smoothSolver:  Solving for Uy, Initial residual = 0.0100414, Final residual = 0.000496345, No Iterations 4
GAMG:  Solving for p, Initial residual = 0.00914368, Final residual = 0.000692243, No Iterations 2
time step continuity errors : sum local = 0.000203057, global = 1.02109e-16, cumulative = 4.72866e-16
smoothSolver:  Solving for nuTilda, Initial residual = 0.00150479, Final residual = 9.1474e-05, No Iterations 4
bounding nuTilda, min: -0.00475821 max: 0.397801 average: 0.0782055
ExecutionTime = 0.53 s  ClockTime = 0 s

Time = 34

smoothSolver:  Solving for Ux, Initial residual = 0.00183761, Final residual = 8.49356e-05, No Iterations 4
smoothSolver:  Solving for Uy, Initial residual = 0.00974959, Final residual = 0.000484862, No Iterations 4
GAMG:  Solving for p, Initial residual = 0.00822632, Final residual = 0.000527178, No Iterations 2
time step continuity errors : sum local = 0.000155506, global = -2.44394e-17, cumulative = 4.48427e-16
smoothSolver:  Solving for nuTilda, Initial residual = 0.00143027, Final residual = 8.69698e-05, No Iterations 4
bounding nuTilda, min: -0.0046935 max: 0.397914 average: 0.0777396
ExecutionTime = 0.55 s  ClockTime = 0 s

Time = 35

smoothSolver:  Solving for Ux, Initial residual = 0.00170683, Final residual = 7.74777e-05, No Iterations 4
smoothSolver:  Solving for Uy, Initial residual = 0.00869234, Final residual = 0.000441909, No Iterations 4
GAMG:  Solving for p, Initial residual = 0.00741809, Final residual = 0.00047024, No Iterations 2
time step continuity errors : sum local = 0.000138086, global = 1.2635e-16, cumulative = 5.74777e-16
smoothSolver:  Solving for nuTilda, Initial residual = 0.00135864, Final residual = 8.27327e-05, No Iterations 4
bounding nuTilda, min: -0.00463293 max: 0.39802 average: 0.0772906
ExecutionTime = 0.56 s  ClockTime = 0 s

forces wings output:
    sum of forces:
        pressure : (0.0281863 1.61479 -1.22271e-20)
        viscous  : (0.266697 -0.00460615 3.66826e-22)
        porous   : (0 0 0)
    sum of moments:
        pressure : (-0.0807395 0.00140931 0.0971826)
        viscous  : (0.000230308 0.0133348 -2.73764e-05)
        porous   : (0 0 0)

Time = 36

smoothSolver:  Solving for Ux, Initial residual = 0.00148502, Final residual = 6.51709e-05, No Iterations 4
smoothSolver:  Solving for Uy, Initial residual = 0.0076607, Final residual = 0.000399299, No Iterations 4
GAMG:  Solving for p, Initial residual = 0.00651785, Final residual = 0.000479129, No Iterations 2
time step continuity errors : sum local = 0.000140798, global = -1.87902e-17, cumulative = 5.55986e-16
smoothSolver:  Solving for nuTilda, Initial residual = 0.00129011, Final residual = 7.87788e-05, No Iterations 4
bounding nuTilda, min: -0.00457585 max: 0.398102 average: 0.0768559
ExecutionTime = 0.58 s  ClockTime = 0 s

Time = 37

smoothSolver:  Solving for Ux, Initial residual = 0.00127346, Final residual = 5.57546e-05, No Iterations 4
smoothSolver:  Solving for Uy, Initial residual = 0.00658733, Final residual = 0.000353539, No Iterations 4
GAMG:  Solving for p, Initial residual = 0.0059176, Final residual = 0.000480439, No Iterations 2
time step continuity errors : sum local = 0.000142603, global = 1.97705e-16, cumulative = 7.53691e-16
smoothSolver:  Solving for nuTilda, Initial residual = 0.00122676, Final residual = 7.50535e-05, No Iterations 4
bounding nuTilda, min: -0.00452197 max: 0.398152 average: 0.0764354
ExecutionTime = 0.59 s  ClockTime = 0 s

Time = 38

smoothSolver:  Solving for Ux, Initial residual = 0.00117772, Final residual = 5.16699e-05, No Iterations 4
smoothSolver:  Solving for Uy, Initial residual = 0.00545016, Final residual = 0.0003026, No Iterations 4
GAMG:  Solving for p, Initial residual = 0.00550723, Final residual = 0.000435316, No Iterations 2
time step continuity errors : sum local = 0.000130405, global = 3.91363e-17, cumulative = 7.92828e-16
smoothSolver:  Solving for nuTilda, Initial residual = 0.00116584, Final residual = 7.15198e-05, No Iterations 4
bounding nuTilda, min: -0.00447087 max: 0.398168 average: 0.076028
ExecutionTime = 0.61 s  ClockTime = 0 s

Time = 39

smoothSolver:  Solving for Ux, Initial residual = 0.00120143, Final residual = 5.40148e-05, No Iterations 4
smoothSolver:  Solving for Uy, Initial residual = 0.00539012, Final residual = 0.0002909, No Iterations 4
GAMG:  Solving for p, Initial residual = 0.00472483, Final residual = 0.000343964, No Iterations 2
time step continuity errors : sum local = 0.000103916, global = -9.65048e-17, cumulative = 6.96323e-16
smoothSolver:  Solving for nuTilda, Initial residual = 0.00111183, Final residual = 6.82102e-05, No Iterations 4
bounding nuTilda, min: -0.0044225 max: 0.398155 average: 0.0756334
ExecutionTime = 0.62 s  ClockTime = 0 s

Time = 40

smoothSolver:  Solving for Ux, Initial residual = 0.00119935, Final residual = 5.53574e-05, No Iterations 4
smoothSolver:  Solving for Uy, Initial residual = 0.00548417, Final residual = 0.000295938, No Iterations 4
GAMG:  Solving for p, Initial residual = 0.00403601, Final residual = 0.000275853, No Iterations 2
time step continuity errors : sum local = 8.37128e-05, global = -1.29917e-16, cumulative = 5.66406e-16
smoothSolver:  Solving for nuTilda, Initial residual = 0.00106381, Final residual = 6.5082e-05, No Iterations 4
bounding nuTilda, min: -0.00437657 max: 0.39812 average: 0.0752508
ExecutionTime = 0.63 s  ClockTime = 0 s

forces wings output:
    sum of forces:
        pressure : (0.0241021 1.38081 -7.34102e-21)
        viscous  : (0.260472 -0.00448723 8.73207e-23)
        porous   : (0 0 0)
    sum of moments:
        pressure : (-0.0690404 0.00120511 0.0344327)
        viscous  : (0.000224362 0.0130236 -1.97838e-05)
        porous   : (0 0 0)

Time = 41

smoothSolver:  Solving for Ux, Initial residual = 0.00111779, Final residual = 5.3249e-05, No Iterations 4
smoothSolver:  Solving for Uy, Initial residual = 0.00534538, Final residual = 0.000287257, No Iterations 4
GAMG:  Solving for p, Initial residual = 0.00371042, Final residual = 0.000249096, No Iterations 2
time step continuity errors : sum local = 7.35605e-05, global = 3.75175e-17, cumulative = 6.03923e-16
smoothSolver:  Solving for nuTilda, Initial residual = 0.00101668, Final residual = 6.21183e-05, No Iterations 4
bounding nuTilda, min: -0.00433304 max: 0.398073 average: 0.0748797
ExecutionTime = 0.65 s  ClockTime = 0 s

Time = 42

smoothSolver:  Solving for Ux, Initial residual = 0.0010036, Final residual = 4.82302e-05, No Iterations 4
smoothSolver:  Solving for Uy, Initial residual = 0.00476678, Final residual = 0.000257878, No Iterations 4
GAMG:  Solving for p, Initial residual = 0.00342315, Final residual = 0.000255144, No Iterations 2
time step continuity errors : sum local = 7.50673e-05, global = 5.37869e-17, cumulative = 6.5771e-16
smoothSolver:  Solving for nuTilda, Initial residual = 0.000971006, Final residual = 5.92244e-05, No Iterations 4
bounding nuTilda, min: -0.00429144 max: 0.398024 average: 0.0745196
ExecutionTime = 0.66 s  ClockTime = 0 s

Time = 43

smoothSolver:  Solving for Ux, Initial residual = 0.000907759, Final residual = 4.34911e-05, No Iterations 4
smoothSolver:  Solving for Uy, Initial residual = 0.00403853, Final residual = 0.000220275, No Iterations 4
GAMG:  Solving for p, Initial residual = 0.00308058, Final residual = 0.000228053, No Iterations 2
time step continuity errors : sum local = 6.66539e-05, global = -1.94773e-16, cumulative = 4.62938e-16
smoothSolver:  Solving for nuTilda, Initial residual = 0.000925385, Final residual = 5.64095e-05, No Iterations 4
bounding nuTilda, min: -0.00425252 max: 0.397982 average: 0.0741703
ExecutionTime = 0.68 s  ClockTime = 0 s

Time = 44

smoothSolver:  Solving for Ux, Initial residual = 0.000826163, Final residual = 3.92393e-05, No Iterations 4
smoothSolver:  Solving for Uy, Initial residual = 0.00356096, Final residual = 0.000202055, No Iterations 4
GAMG:  Solving for p, Initial residual = 0.00278989, Final residual = 0.000209493, No Iterations 2
time step continuity errors : sum local = 6.12498e-05, global = 1.73038e-16, cumulative = 6.35976e-16
smoothSolver:  Solving for nuTilda, Initial residual = 0.000883216, Final residual = 5.37235e-05, No Iterations 4
bounding nuTilda, min: -0.00421548 max: 0.397952 average: 0.0738309
ExecutionTime = 0.69 s  ClockTime = 0 s

Time = 45

smoothSolver:  Solving for Ux, Initial residual = 0.000756662, Final residual = 3.56291e-05, No Iterations 4
smoothSolver:  Solving for Uy, Initial residual = 0.0031301, Final residual = 0.00018751, No Iterations 4
GAMG:  Solving for p, Initial residual = 0.00259539, Final residual = 0.000203764, No Iterations 2
time step continuity errors : sum local = 5.98425e-05, global = -2.29742e-16, cumulative = 4.06234e-16
smoothSolver:  Solving for nuTilda, Initial residual = 0.000842694, Final residual = 5.12267e-05, No Iterations 4
bounding nuTilda, min: -0.00417994 max: 0.397936 average: 0.0735017
ExecutionTime = 0.7 s  ClockTime = 0 s

forces wings output:
    sum of forces:
        pressure : (0.0264794 1.517 -6.90024e-21)
        viscous  : (0.255965 -0.00439905 1.46354e-23)
        porous   : (0 0 0)
    sum of moments:
        pressure : (-0.0758502 0.00132397 0.0341605)
        viscous  : (0.000219952 0.0127982 -2.6333e-05)
        porous   : (0 0 0)

Time = 46

smoothSolver:  Solving for Ux, Initial residual = 0.00071473, Final residual = 3.33957e-05, No Iterations 4
smoothSolver:  Solving for Uy, Initial residual = 0.00291906, Final residual = 0.000175169, No Iterations 4
GAMG:  Solving for p, Initial residual = 0.00235567, Final residual = 0.000187642, No Iterations 2
time step continuity errors : sum local = 5.56736e-05, global = -1.56063e-17, cumulative = 3.90628e-16
smoothSolver:  Solving for nuTilda, Initial residual = 0.000803704, Final residual = 4.88994e-05, No Iterations 4
bounding nuTilda, min: -0.00414606 max: 0.39793 average: 0.0731819
ExecutionTime = 0.72 s  ClockTime = 0 s

Time = 47

smoothSolver:  Solving for Ux, Initial residual = 0.000685546, Final residual = 3.1885e-05, No Iterations 4
smoothSolver:  Solving for Uy, Initial residual = 0.00286302, Final residual = 0.000165492, No Iterations 4
GAMG:  Solving for p, Initial residual = 0.00202412, Final residual = 0.000164126, No Iterations 2
time step continuity errors : sum local = 4.91714e-05, global = -1.62575e-16, cumulative = 2.28053e-16
smoothSolver:  Solving for nuTilda, Initial residual = 0.000767245, Final residual = 4.67171e-05, No Iterations 4
bounding nuTilda, min: -0.00411351 max: 0.397932 average: 0.0728724
ExecutionTime = 0.73 s  ClockTime = 0 s

Time = 48

smoothSolver:  Solving for Ux, Initial residual = 0.00064414, Final residual = 3.00128e-05, No Iterations 4
smoothSolver:  Solving for Uy, Initial residual = 0.00272038, Final residual = 0.000156946, No Iterations 4
GAMG:  Solving for p, Initial residual = 0.00184704, Final residual = 0.000139498, No Iterations 2
time step continuity errors : sum local = 4.21405e-05, global = -3.47051e-16, cumulative = -1.18998e-16
smoothSolver:  Solving for nuTilda, Initial residual = 0.000733801, Final residual = 4.4615e-05, No Iterations 4
bounding nuTilda, min: -0.00408219 max: 0.39794 average: 0.0725714
ExecutionTime = 0.75 s  ClockTime = 1 s

Time = 49

smoothSolver:  Solving for Ux, Initial residual = 0.000605667, Final residual = 2.86863e-05, No Iterations 4
smoothSolver:  Solving for Uy, Initial residual = 0.0025038, Final residual = 0.000148608, No Iterations 4
GAMG:  Solving for p, Initial residual = 0.00176789, Final residual = 0.000133774, No Iterations 2
time step continuity errors : sum local = 4.04349e-05, global = -4.42651e-17, cumulative = -1.63263e-16
smoothSolver:  Solving for nuTilda, Initial residual = 0.000702083, Final residual = 4.25885e-05, No Iterations 4
bounding nuTilda, min: -0.00405224 max: 0.397949 average: 0.0722787
ExecutionTime = 0.77 s  ClockTime = 1 s

Time = 50

smoothSolver:  Solving for Ux, Initial residual = 0.000578065, Final residual = 2.81652e-05, No Iterations 4
smoothSolver:  Solving for Uy, Initial residual = 0.00231587, Final residual = 0.000139394, No Iterations 4
GAMG:  Solving for p, Initial residual = 0.00161252, Final residual = 0.000126828, No Iterations 2
time step continuity errors : sum local = 3.82999e-05, global = -9.60681e-17, cumulative = -2.59331e-16
smoothSolver:  Solving for nuTilda, Initial residual = 0.000671901, Final residual = 4.0652e-05, No Iterations 4
bounding nuTilda, min: -0.00402374 max: 0.397959 average: 0.0719937
ExecutionTime = 0.78 s  ClockTime = 1 s

forces wings output:
    sum of forces:
        pressure : (0.0286506 1.64139 -8.80672e-21)
        viscous  : (0.252796 -0.00432398 1.39409e-22)
        porous   : (0 0 0)
    sum of moments:
        pressure : (-0.0820696 0.00143253 0.0500302)
        viscous  : (0.000216199 0.0126398 -2.52085e-05)
        porous   : (0 0 0)

Time = 51

smoothSolver:  Solving for Ux, Initial residual = 0.000551905, Final residual = 2.75469e-05, No Iterations 4
smoothSolver:  Solving for Uy, Initial residual = 0.00216196, Final residual = 0.000128914, No Iterations 4
GAMG:  Solving for p, Initial residual = 0.00139023, Final residual = 0.00012292, No Iterations 2
time step continuity errors : sum local = 3.70899e-05, global = -1.33065e-16, cumulative = -3.92396e-16
smoothSolver:  Solving for nuTilda, Initial residual = 0.000642511, Final residual = 3.88162e-05, No Iterations 4
bounding nuTilda, min: -0.00399661 max: 0.397968 average: 0.0717166
ExecutionTime = 0.8 s  ClockTime = 1 s

Time = 52

smoothSolver:  Solving for Ux, Initial residual = 0.000525205, Final residual = 2.65855e-05, No Iterations 4
smoothSolver:  Solving for Uy, Initial residual = 0.00198921, Final residual = 0.000119018, No Iterations 4
GAMG:  Solving for p, Initial residual = 0.00131865, Final residual = 0.000114033, No Iterations 2
time step continuity errors : sum local = 3.45135e-05, global = 1.15804e-16, cumulative = -2.76591e-16
smoothSolver:  Solving for nuTilda, Initial residual = 0.000614392, Final residual = 3.7075e-05, No Iterations 4
bounding nuTilda, min: -0.00397059 max: 0.397974 average: 0.0714471
ExecutionTime = 0.81 s  ClockTime = 1 s

Time = 53

smoothSolver:  Solving for Ux, Initial residual = 0.000504969, Final residual = 2.55751e-05, No Iterations 4
smoothSolver:  Solving for Uy, Initial residual = 0.0018036, Final residual = 0.00011218, No Iterations 4
GAMG:  Solving for p, Initial residual = 0.00129549, Final residual = 0.000107124, No Iterations 2
time step continuity errors : sum local = 3.26101e-05, global = -1.83287e-16, cumulative = -4.59878e-16
smoothSolver:  Solving for nuTilda, Initial residual = 0.000587596, Final residual = 3.54332e-05, No Iterations 4
bounding nuTilda, min: -0.00394557 max: 0.397978 average: 0.071185
ExecutionTime = 0.83 s  ClockTime = 1 s

Time = 54

smoothSolver:  Solving for Ux, Initial residual = 0.000485788, Final residual = 2.4728e-05, No Iterations 4
smoothSolver:  Solving for Uy, Initial residual = 0.00171112, Final residual = 0.000107804, No Iterations 4
GAMG:  Solving for p, Initial residual = 0.00116092, Final residual = 9.97697e-05, No Iterations 2
time step continuity errors : sum local = 2.94976e-05, global = 1.09778e-16, cumulative = -3.501e-16
smoothSolver:  Solving for nuTilda, Initial residual = 0.000562105, Final residual = 3.38861e-05, No Iterations 4
bounding nuTilda, min: -0.00392131 max: 0.397978 average: 0.0709311
ExecutionTime = 0.84 s  ClockTime = 1 s

Time = 55

smoothSolver:  Solving for Ux, Initial residual = 0.00046719, Final residual = 2.39972e-05, No Iterations 4
smoothSolver:  Solving for Uy, Initial residual = 0.00172142, Final residual = 0.000105077, No Iterations 4
GAMG:  Solving for p, Initial residual = 0.00100023, Final residual = 3.88444e-05, No Iterations 3
time step continuity errors : sum local = 1.1471e-05, global = 2.70472e-17, cumulative = -3.23053e-16
smoothSolver:  Solving for nuTilda, Initial residual = 0.000538454, Final residual = 3.24246e-05, No Iterations 4
bounding nuTilda, min: -0.00389836 max: 0.397977 average: 0.0706834
ExecutionTime = 0.86 s  ClockTime = 1 s

forces wings output:
    sum of forces:
        pressure : (0.0290276 1.66299 -5.84874e-21)
        viscous  : (0.25048 -0.0042784 -7.84913e-23)
        porous   : (0 0 0)
    sum of moments:
        pressure : (-0.0831495 0.00145138 0.0408265)
        viscous  : (0.00021392 0.012524 -2.78325e-05)
        porous   : (0 0 0)

Time = 56

smoothSolver:  Solving for Ux, Initial residual = 0.000451736, Final residual = 2.33639e-05, No Iterations 4
smoothSolver:  Solving for Uy, Initial residual = 0.001768, Final residual = 0.00010538, No Iterations 4
GAMG:  Solving for p, Initial residual = 0.000911459, Final residual = 8.11314e-05, No Iterations 2
time step continuity errors : sum local = 2.38264e-05, global = 2.07752e-16, cumulative = -1.15301e-16
smoothSolver:  Solving for nuTilda, Initial residual = 0.000516246, Final residual = 3.10337e-05, No Iterations 4
bounding nuTilda, min: -0.00387577 max: 0.397973 average: 0.0704422
ExecutionTime = 0.87 s  ClockTime = 1 s

Time = 57

smoothSolver:  Solving for Ux, Initial residual = 0.000437506, Final residual = 2.26345e-05, No Iterations 4
smoothSolver:  Solving for Uy, Initial residual = 0.00172214, Final residual = 0.000104692, No Iterations 4
GAMG:  Solving for p, Initial residual = 0.000901745, Final residual = 7.89415e-05, No Iterations 2
time step continuity errors : sum local = 2.31804e-05, global = -1.55072e-17, cumulative = -1.30808e-16
smoothSolver:  Solving for nuTilda, Initial residual = 0.000495309, Final residual = 2.97065e-05, No Iterations 4
bounding nuTilda, min: -0.00385417 max: 0.397969 average: 0.0702076
ExecutionTime = 0.89 s  ClockTime = 1 s

Time = 58

smoothSolver:  Solving for Ux, Initial residual = 0.000424814, Final residual = 2.2239e-05, No Iterations 4
smoothSolver:  Solving for Uy, Initial residual = 0.00161888, Final residual = 0.000101263, No Iterations 4
GAMG:  Solving for p, Initial residual = 0.000844198, Final residual = 7.96738e-05, No Iterations 2
time step continuity errors : sum local = 2.34751e-05, global = -2.97553e-16, cumulative = -4.28361e-16
smoothSolver:  Solving for nuTilda, Initial residual = 0.00047543, Final residual = 2.8436e-05, No Iterations 4
bounding nuTilda, min: -0.00383335 max: 0.397965 average: 0.0699796
ExecutionTime = 0.9 s  ClockTime = 1 s

Time = 59

smoothSolver:  Solving for Ux, Initial residual = 0.00041178, Final residual = 2.19882e-05, No Iterations 4
smoothSolver:  Solving for Uy, Initial residual = 0.00151876, Final residual = 9.64826e-05, No Iterations 4
GAMG:  Solving for p, Initial residual = 0.000769446, Final residual = 7.23139e-05, No Iterations 2
time step continuity errors : sum local = 2.12732e-05, global = 1.40035e-16, cumulative = -2.88326e-16
smoothSolver:  Solving for nuTilda, Initial residual = 0.000456491, Final residual = 2.72256e-05, No Iterations 4
bounding nuTilda, min: -0.00381332 max: 0.397962 average: 0.069758
ExecutionTime = 0.91 s  ClockTime = 1 s

Time = 60

smoothSolver:  Solving for Ux, Initial residual = 0.000396332, Final residual = 2.12969e-05, No Iterations 4
smoothSolver:  Solving for Uy, Initial residual = 0.00143249, Final residual = 9.1511e-05, No Iterations 4
GAMG:  Solving for p, Initial residual = 0.000716608, Final residual = 6.65689e-05, No Iterations 2
time step continuity errors : sum local = 1.94497e-05, global = 1.18711e-17, cumulative = -2.76455e-16
smoothSolver:  Solving for nuTilda, Initial residual = 0.000438396, Final residual = 2.60728e-05, No Iterations 4
bounding nuTilda, min: -0.003794 max: 0.39796 average: 0.0695423
ExecutionTime = 0.93 s  ClockTime = 1 s

forces wings output:
    sum of forces:
        pressure : (0.0300493 1.72152 -7.04032e-21)
        viscous  : (0.24878 -0.00424413 -1.72713e-23)
        porous   : (0 0 0)
    sum of moments:
        pressure : (-0.0860761 0.00150247 0.043896)
        viscous  : (0.000212207 0.012439 -2.77434e-05)
        porous   : (0 0 0)

Time = 61

smoothSolver:  Solving for Ux, Initial residual = 0.000380422, Final residual = 2.04456e-05, No Iterations 4
smoothSolver:  Solving for Uy, Initial residual = 0.0013449, Final residual = 8.62166e-05, No Iterations 4
GAMG:  Solving for p, Initial residual = 0.00069046, Final residual = 6.47347e-05, No Iterations 2
time step continuity errors : sum local = 1.91118e-05, global = -1.29534e-16, cumulative = -4.05988e-16
smoothSolver:  Solving for nuTilda, Initial residual = 0.000420967, Final residual = 2.4973e-05, No Iterations 4
bounding nuTilda, min: -0.0037753 max: 0.397959 average: 0.0693327
ExecutionTime = 0.94 s  ClockTime = 1 s

Time = 62

smoothSolver:  Solving for Ux, Initial residual = 0.000369164, Final residual = 1.97377e-05, No Iterations 4
smoothSolver:  Solving for Uy, Initial residual = 0.00128372, Final residual = 8.18036e-05, No Iterations 4
GAMG:  Solving for p, Initial residual = 0.000634835, Final residual = 6.14636e-05, No Iterations 2
time step continuity errors : sum local = 1.83821e-05, global = 6.1431e-17, cumulative = -3.44557e-16
smoothSolver:  Solving for nuTilda, Initial residual = 0.00040432, Final residual = 2.39211e-05, No Iterations 4
bounding nuTilda, min: -0.00375719 max: 0.397959 average: 0.0691293
ExecutionTime = 0.95 s  ClockTime = 1 s

Time = 63

smoothSolver:  Solving for Ux, Initial residual = 0.000360089, Final residual = 1.91771e-05, No Iterations 4
smoothSolver:  Solving for Uy, Initial residual = 0.00125201, Final residual = 7.91543e-05, No Iterations 4
GAMG:  Solving for p, Initial residual = 0.000596321, Final residual = 5.83637e-05, No Iterations 2
time step continuity errors : sum local = 1.76428e-05, global = -1.81198e-16, cumulative = -5.25756e-16
smoothSolver:  Solving for nuTilda, Initial residual = 0.000388544, Final residual = 2.29163e-05, No Iterations 4
bounding nuTilda, min: -0.00373967 max: 0.397959 average: 0.0689317
ExecutionTime = 0.97 s  ClockTime = 1 s

Time = 64

smoothSolver:  Solving for Ux, Initial residual = 0.000352005, Final residual = 1.86717e-05, No Iterations 4
smoothSolver:  Solving for Uy, Initial residual = 0.00121427, Final residual = 7.69023e-05, No Iterations 4
GAMG:  Solving for p, Initial residual = 0.000573786, Final residual = 2.69613e-05, No Iterations 3
time step continuity errors : sum local = 7.98663e-06, global = 1.13176e-16, cumulative = -4.1258e-16
smoothSolver:  Solving for nuTilda, Initial residual = 0.000373413, Final residual = 2.1959e-05, No Iterations 4
bounding nuTilda, min: -0.0037228 max: 0.397959 average: 0.06874
ExecutionTime = 0.98 s  ClockTime = 1 s

Time = 65

smoothSolver:  Solving for Ux, Initial residual = 0.000346884, Final residual = 1.83331e-05, No Iterations 4
smoothSolver:  Solving for Uy, Initial residual = 0.00118545, Final residual = 7.56375e-05, No Iterations 4
GAMG:  Solving for p, Initial residual = 0.000555242, Final residual = 5.0236e-05, No Iterations 2
time step continuity errors : sum local = 1.49582e-05, global = 1.03174e-16, cumulative = -3.09406e-16
smoothSolver:  Solving for nuTilda, Initial residual = 0.000358997, Final residual = 2.10492e-05, No Iterations 4
bounding nuTilda, min: -0.00370616 max: 0.397958 average: 0.0685541
ExecutionTime = 1 s  ClockTime = 1 s

forces wings output:
    sum of forces:
        pressure : (0.0309927 1.77557 -5.72911e-21)
        viscous  : (0.247454 -0.004216 -1.21647e-22)
        porous   : (0 0 0)
    sum of moments:
        pressure : (-0.0887784 0.00154963 0.0379857)
        viscous  : (0.0002108 0.0123727 -3.00504e-05)
        porous   : (0 0 0)

Time = 66

smoothSolver:  Solving for Ux, Initial residual = 0.000340877, Final residual = 1.79963e-05, No Iterations 4
smoothSolver:  Solving for Uy, Initial residual = 0.00115302, Final residual = 7.39081e-05, No Iterations 4
GAMG:  Solving for p, Initial residual = 0.00053697, Final residual = 5.07357e-05, No Iterations 2
time step continuity errors : sum local = 1.49527e-05, global = 1.38693e-16, cumulative = -1.70713e-16
smoothSolver:  Solving for nuTilda, Initial residual = 0.000345427, Final residual = 2.01856e-05, No Iterations 4
bounding nuTilda, min: -0.00369 max: 0.397958 average: 0.0683741
ExecutionTime = 1.01 s  ClockTime = 1 s

Time = 67

smoothSolver:  Solving for Ux, Initial residual = 0.000335892, Final residual = 1.76943e-05, No Iterations 4
smoothSolver:  Solving for Uy, Initial residual = 0.00113377, Final residual = 7.22729e-05, No Iterations 4
GAMG:  Solving for p, Initial residual = 0.000513141, Final residual = 4.66782e-05, No Iterations 2
time step continuity errors : sum local = 1.36708e-05, global = 7.70742e-17, cumulative = -9.36387e-17
smoothSolver:  Solving for nuTilda, Initial residual = 0.000332201, Final residual = 1.93567e-05, No Iterations 4
bounding nuTilda, min: -0.00367429 max: 0.397958 average: 0.0681998
ExecutionTime = 1.02 s  ClockTime = 1 s

Time = 68

smoothSolver:  Solving for Ux, Initial residual = 0.000329821, Final residual = 1.73251e-05, No Iterations 4
smoothSolver:  Solving for Uy, Initial residual = 0.00111113, Final residual = 7.05146e-05, No Iterations 4
GAMG:  Solving for p, Initial residual = 0.00049987, Final residual = 3.87315e-05, No Iterations 2
time step continuity errors : sum local = 1.13204e-05, global = 2.20846e-17, cumulative = -7.15541e-17
smoothSolver:  Solving for nuTilda, Initial residual = 0.000319334, Final residual = 1.8557e-05, No Iterations 4
bounding nuTilda, min: -0.003659 max: 0.397957 average: 0.0680314
ExecutionTime = 1.05 s  ClockTime = 1 s

Time = 69

smoothSolver:  Solving for Ux, Initial residual = 0.000320829, Final residual = 1.68417e-05, No Iterations 4
smoothSolver:  Solving for Uy, Initial residual = 0.00106186, Final residual = 6.7637e-05, No Iterations 4
GAMG:  Solving for p, Initial residual = 0.000486386, Final residual = 3.6517e-05, No Iterations 2
time step continuity errors : sum local = 1.0705e-05, global = -2.09007e-16, cumulative = -2.80561e-16
smoothSolver:  Solving for nuTilda, Initial residual = 0.000307004, Final residual = 1.77936e-05, No Iterations 4
bounding nuTilda, min: -0.00364411 max: 0.397957 average: 0.0678689
ExecutionTime = 1.06 s  ClockTime = 1 s

Time = 70

smoothSolver:  Solving for Ux, Initial residual = 0.000311323, Final residual = 1.62538e-05, No Iterations 4
smoothSolver:  Solving for Uy, Initial residual = 0.0010059, Final residual = 6.39239e-05, No Iterations 4
GAMG:  Solving for p, Initial residual = 0.000476716, Final residual = 3.83302e-05, No Iterations 2
time step continuity errors : sum local = 1.13281e-05, global = -3.93779e-17, cumulative = -3.19939e-16
smoothSolver:  Solving for nuTilda, Initial residual = 0.000294918, Final residual = 1.70657e-05, No Iterations 4
bounding nuTilda, min: -0.00362959 max: 0.397956 average: 0.0677123
ExecutionTime = 1.07 s  ClockTime = 1 s

forces wings output:
    sum of forces:
        pressure : (0.0314414 1.80128 -5.81469e-21)
        viscous  : (0.246584 -0.00419341 -1.28564e-22)
        porous   : (0 0 0)
    sum of moments:
        pressure : (-0.0900638 0.00157207 0.0358428)
        viscous  : (0.000209671 0.0123292 -3.12898e-05)
        porous   : (0 0 0)

Time = 71

smoothSolver:  Solving for Ux, Initial residual = 0.000301734, Final residual = 1.55964e-05, No Iterations 4
smoothSolver:  Solving for Uy, Initial residual = 0.000971848, Final residual = 6.07388e-05, No Iterations 4
GAMG:  Solving for p, Initial residual = 0.00047208, Final residual = 3.89876e-05, No Iterations 2
time step continuity errors : sum local = 1.16549e-05, global = 1.34374e-16, cumulative = -1.85565e-16
smoothSolver:  Solving for nuTilda, Initial residual = 0.000283438, Final residual = 1.63716e-05, No Iterations 4
bounding nuTilda, min: -0.00361541 max: 0.397956 average: 0.0675617
ExecutionTime = 1.09 s  ClockTime = 1 s

Time = 72

smoothSolver:  Solving for Ux, Initial residual = 0.000292585, Final residual = 1.4959e-05, No Iterations 4
smoothSolver:  Solving for Uy, Initial residual = 0.000953443, Final residual = 5.84573e-05, No Iterations 4
GAMG:  Solving for p, Initial residual = 0.000471936, Final residual = 3.61676e-05, No Iterations 2
time step continuity errors : sum local = 1.09559e-05, global = 1.31438e-16, cumulative = -5.41277e-17
smoothSolver:  Solving for nuTilda, Initial residual = 0.00027232, Final residual = 1.57111e-05, No Iterations 4
bounding nuTilda, min: -0.00360151 max: 0.397955 average: 0.0674172
ExecutionTime = 1.1 s  ClockTime = 1 s

Time = 73

smoothSolver:  Solving for Ux, Initial residual = 0.000285699, Final residual = 1.44216e-05, No Iterations 4
smoothSolver:  Solving for Uy, Initial residual = 0.000941388, Final residual = 5.69888e-05, No Iterations 4
GAMG:  Solving for p, Initial residual = 0.000475704, Final residual = 3.33737e-05, No Iterations 2
time step continuity errors : sum local = 1.02251e-05, global = -5.13053e-17, cumulative = -1.05433e-16
smoothSolver:  Solving for nuTilda, Initial residual = 0.000261739, Final residual = 1.50867e-05, No Iterations 4
bounding nuTilda, min: -0.00358785 max: 0.397955 average: 0.0672786
ExecutionTime = 1.11 s  ClockTime = 1 s

Time = 74

smoothSolver:  Solving for Ux, Initial residual = 0.000280095, Final residual = 1.39743e-05, No Iterations 4
smoothSolver:  Solving for Uy, Initial residual = 0.000927935, Final residual = 5.59554e-05, No Iterations 4
GAMG:  Solving for p, Initial residual = 0.000476753, Final residual = 3.35113e-05, No Iterations 2
time step continuity errors : sum local = 9.89283e-06, global = -9.14181e-19, cumulative = -1.06347e-16
smoothSolver:  Solving for nuTilda, Initial residual = 0.000251847, Final residual = 1.4495e-05, No Iterations 4
bounding nuTilda, min: -0.00357438 max: 0.397955 average: 0.067146
ExecutionTime = 1.13 s  ClockTime = 1 s

Time = 75

smoothSolver:  Solving for Ux, Initial residual = 0.000274161, Final residual = 1.35453e-05, No Iterations 4
smoothSolver:  Solving for Uy, Initial residual = 0.000914986, Final residual = 5.5018e-05, No Iterations 4
GAMG:  Solving for p, Initial residual = 0.000480133, Final residual = 3.29244e-05, No Iterations 2
time step continuity errors : sum local = 9.84418e-06, global = -2.07186e-18, cumulative = -1.08419e-16
smoothSolver:  Solving for nuTilda, Initial residual = 0.000242272, Final residual = 1.39316e-05, No Iterations 4
bounding nuTilda, min: -0.00356117 max: 0.397955 average: 0.0670193
ExecutionTime = 1.14 s  ClockTime = 1 s

forces wings output:
    sum of forces:
        pressure : (0.0321764 1.84338 -5.03457e-21)
        viscous  : (0.245905 -0.00417617 -1.91229e-22)
        porous   : (0 0 0)
    sum of moments:
        pressure : (-0.0921691 0.00160882 0.0286618)
        viscous  : (0.000208808 0.0122952 -3.32522e-05)
        porous   : (0 0 0)

Time = 76

smoothSolver:  Solving for Ux, Initial residual = 0.000268086, Final residual = 1.30877e-05, No Iterations 4
smoothSolver:  Solving for Uy, Initial residual = 0.000914805, Final residual = 5.50234e-05, No Iterations 4
GAMG:  Solving for p, Initial residual = 0.000486519, Final residual = 3.00693e-05, No Iterations 2
time step continuity errors : sum local = 8.90677e-06, global = 2.25157e-16, cumulative = 1.16738e-16
smoothSolver:  Solving for nuTilda, Initial residual = 0.000233264, Final residual = 1.33973e-05, No Iterations 4
bounding nuTilda, min: -0.00354817 max: 0.397956 average: 0.0668986
ExecutionTime = 1.16 s  ClockTime = 1 s

Time = 77

smoothSolver:  Solving for Ux, Initial residual = 0.000261008, Final residual = 1.25791e-05, No Iterations 4
smoothSolver:  Solving for Uy, Initial residual = 0.000908305, Final residual = 5.49001e-05, No Iterations 4
GAMG:  Solving for p, Initial residual = 0.00049192, Final residual = 2.71336e-05, No Iterations 2
time step continuity errors : sum local = 7.99669e-06, global = -1.40454e-16, cumulative = -2.37154e-17
smoothSolver:  Solving for nuTilda, Initial residual = 0.000224483, Final residual = 1.28836e-05, No Iterations 4
bounding nuTilda, min: -0.00353538 max: 0.397956 average: 0.0667836
ExecutionTime = 1.17 s  ClockTime = 1 s

Time = 78

smoothSolver:  Solving for Ux, Initial residual = 0.000253869, Final residual = 1.20811e-05, No Iterations 4
smoothSolver:  Solving for Uy, Initial residual = 0.000893237, Final residual = 5.43483e-05, No Iterations 4
GAMG:  Solving for p, Initial residual = 0.000502511, Final residual = 2.72103e-05, No Iterations 2
time step continuity errors : sum local = 8.00916e-06, global = -7.58488e-17, cumulative = -9.95641e-17
smoothSolver:  Solving for nuTilda, Initial residual = 0.000216003, Final residual = 1.23934e-05, No Iterations 4
bounding nuTilda, min: -0.00352278 max: 0.397957 average: 0.0666745
ExecutionTime = 1.19 s  ClockTime = 1 s

Time = 79

smoothSolver:  Solving for Ux, Initial residual = 0.000247834, Final residual = 1.16338e-05, No Iterations 4
smoothSolver:  Solving for Uy, Initial residual = 0.000872034, Final residual = 5.34447e-05, No Iterations 4
GAMG:  Solving for p, Initial residual = 0.000515024, Final residual = 2.82162e-05, No Iterations 2
time step continuity errors : sum local = 8.32725e-06, global = 3.88962e-16, cumulative = 2.89397e-16
smoothSolver:  Solving for nuTilda, Initial residual = 0.000208146, Final residual = 1.19204e-05, No Iterations 4
bounding nuTilda, min: -0.00351036 max: 0.397957 average: 0.0665713
ExecutionTime = 1.2 s  ClockTime = 1 s

Time = 80

smoothSolver:  Solving for Ux, Initial residual = 0.000243231, Final residual = 1.12366e-05, No Iterations 4
smoothSolver:  Solving for Uy, Initial residual = 0.000853585, Final residual = 5.24627e-05, No Iterations 4
GAMG:  Solving for p, Initial residual = 0.00052762, Final residual = 2.81255e-05, No Iterations 2
time step continuity errors : sum local = 8.35137e-06, global = 1.4571e-16, cumulative = 4.35107e-16
smoothSolver:  Solving for nuTilda, Initial residual = 0.000200442, Final residual = 1.14591e-05, No Iterations 4
bounding nuTilda, min: -0.0034981 max: 0.397957 average: 0.0664738
ExecutionTime = 1.21 s  ClockTime = 1 s

forces wings output:
    sum of forces:
        pressure : (0.032393 1.85579 -4.85257e-21)
        viscous  : (0.245384 -0.00416143 -2.09393e-22)
        porous   : (0 0 0)
    sum of moments:
        pressure : (-0.0927894 0.00161965 0.0251236)
        viscous  : (0.000208072 0.0122692 -3.41527e-05)
        porous   : (0 0 0)

Time = 81

smoothSolver:  Solving for Ux, Initial residual = 0.000238975, Final residual = 1.08463e-05, No Iterations 4
smoothSolver:  Solving for Uy, Initial residual = 0.00083478, Final residual = 5.13333e-05, No Iterations 4
GAMG:  Solving for p, Initial residual = 0.000540853, Final residual = 2.73079e-05, No Iterations 2
time step continuity errors : sum local = 8.1773e-06, global = 1.05427e-16, cumulative = 5.40534e-16
smoothSolver:  Solving for nuTilda, Initial residual = 0.000193239, Final residual = 1.10223e-05, No Iterations 4
bounding nuTilda, min: -0.00348597 max: 0.397957 average: 0.0663822
ExecutionTime = 1.23 s  ClockTime = 1 s

Time = 82

smoothSolver:  Solving for Ux, Initial residual = 0.000233826, Final residual = 1.04119e-05, No Iterations 4
smoothSolver:  Solving for Uy, Initial residual = 0.000817055, Final residual = 5.0088e-05, No Iterations 4
GAMG:  Solving for p, Initial residual = 0.000552428, Final residual = 2.64539e-05, No Iterations 2
time step continuity errors : sum local = 7.99214e-06, global = 2.23679e-16, cumulative = 7.64213e-16
smoothSolver:  Solving for nuTilda, Initial residual = 0.000186374, Final residual = 1.06036e-05, No Iterations 4
bounding nuTilda, min: -0.00347396 max: 0.397958 average: 0.0662966
ExecutionTime = 1.24 s  ClockTime = 1 s

Time = 83

smoothSolver:  Solving for Ux, Initial residual = 0.000228123, Final residual = 9.94112e-06, No Iterations 4
smoothSolver:  Solving for Uy, Initial residual = 0.000800482, Final residual = 4.88082e-05, No Iterations 4
GAMG:  Solving for p, Initial residual = 0.000564203, Final residual = 2.56558e-05, No Iterations 2
time step continuity errors : sum local = 7.8123e-06, global = 3.88603e-17, cumulative = 8.03073e-16
smoothSolver:  Solving for nuTilda, Initial residual = 0.000179526, Final residual = 1.0202e-05, No Iterations 4
bounding nuTilda, min: -0.00346205 max: 0.397959 average: 0.0662171
ExecutionTime = 1.26 s  ClockTime = 1 s

Time = 84

smoothSolver:  Solving for Ux, Initial residual = 0.000222061, Final residual = 9.46801e-06, No Iterations 4
smoothSolver:  Solving for Uy, Initial residual = 0.000787901, Final residual = 4.76386e-05, No Iterations 4
GAMG:  Solving for p, Initial residual = 0.000575451, Final residual = 2.51291e-05, No Iterations 2
time step continuity errors : sum local = 7.69663e-06, global = -1.08067e-16, cumulative = 6.95006e-16
smoothSolver:  Solving for nuTilda, Initial residual = 0.00017283, Final residual = 9.80127e-06, No Iterations 4
bounding nuTilda, min: -0.00345025 max: 0.397959 average: 0.0661439
ExecutionTime = 1.27 s  ClockTime = 1 s

Time = 85

smoothSolver:  Solving for Ux, Initial residual = 0.000216171, Final residual = 9.03221e-06, No Iterations 4
smoothSolver:  Solving for Uy, Initial residual = 0.000773134, Final residual = 4.63626e-05, No Iterations 4
GAMG:  Solving for p, Initial residual = 0.000583507, Final residual = 2.4972e-05, No Iterations 2
time step continuity errors : sum local = 7.6746e-06, global = 2.46532e-17, cumulative = 7.19659e-16
smoothSolver:  Solving for nuTilda, Initial residual = 0.000166171, Final residual = 9.40117e-06, No Iterations 4
bounding nuTilda, min: -0.00343856 max: 0.39796 average: 0.0660772
ExecutionTime = 1.29 s  ClockTime = 1 s

forces wings output:
    sum of forces:
        pressure : (0.0329862 1.88978 -4.37175e-21)
        viscous  : (0.244945 -0.00414896 -2.51204e-22)
        porous   : (0 0 0)
    sum of moments:
        pressure : (-0.0944888 0.00164931 0.0207576)
        viscous  : (0.000207448 0.0122472 -3.59152e-05)
        porous   : (0 0 0)

Time = 86

smoothSolver:  Solving for Ux, Initial residual = 0.00021067, Final residual = 8.65479e-06, No Iterations 4
smoothSolver:  Solving for Uy, Initial residual = 0.000753916, Final residual = 4.50179e-05, No Iterations 4
GAMG:  Solving for p, Initial residual = 0.000590879, Final residual = 5.84511e-05, No Iterations 1
time step continuity errors : sum local = 1.74361e-05, global = -1.46345e-17, cumulative = 7.05025e-16
smoothSolver:  Solving for nuTilda, Initial residual = 0.000159791, Final residual = 9.00695e-06, No Iterations 4
bounding nuTilda, min: -0.00342662 max: 0.397962 average: 0.0660171
ExecutionTime = 1.3 s  ClockTime = 1 s

Time = 87

smoothSolver:  Solving for Ux, Initial residual = 0.00020355, Final residual = 8.18684e-06, No Iterations 4
smoothSolver:  Solving for Uy, Initial residual = 0.000723749, Final residual = 4.3167e-05, No Iterations 4
GAMG:  Solving for p, Initial residual = 0.000605121, Final residual = 3.23225e-05, No Iterations 2
time step continuity errors : sum local = 9.83551e-06, global = 1.10175e-17, cumulative = 7.16042e-16
smoothSolver:  Solving for nuTilda, Initial residual = 0.00015352, Final residual = 8.60918e-06, No Iterations 4
bounding nuTilda, min: -0.00341546 max: 0.397963 average: 0.0659634
ExecutionTime = 1.31 s  ClockTime = 1 s

Time = 88

smoothSolver:  Solving for Ux, Initial residual = 0.000200854, Final residual = 8.05046e-06, No Iterations 4
smoothSolver:  Solving for Uy, Initial residual = 0.00069541, Final residual = 4.16799e-05, No Iterations 4
GAMG:  Solving for p, Initial residual = 0.000602017, Final residual = 2.97788e-05, No Iterations 2
time step continuity errors : sum local = 9.10016e-06, global = 8.32999e-17, cumulative = 7.99342e-16
smoothSolver:  Solving for nuTilda, Initial residual = 0.000147455, Final residual = 8.21118e-06, No Iterations 4
bounding nuTilda, min: -0.00340411 max: 0.397964 average: 0.0659158
ExecutionTime = 1.33 s  ClockTime = 1 s

Time = 89

smoothSolver:  Solving for Ux, Initial residual = 0.000198276, Final residual = 7.93089e-06, No Iterations 4
smoothSolver:  Solving for Uy, Initial residual = 0.000677413, Final residual = 4.08376e-05, No Iterations 4
GAMG:  Solving for p, Initial residual = 0.000594454, Final residual = 5.73918e-05, No Iterations 1
time step continuity errors : sum local = 1.7163e-05, global = -4.73411e-17, cumulative = 7.52001e-16
smoothSolver:  Solving for nuTilda, Initial residual = 0.00014159, Final residual = 7.8014e-06, No Iterations 4
bounding nuTilda, min: -0.0033925 max: 0.397965 average: 0.065874
ExecutionTime = 1.34 s  ClockTime = 1 s

Time = 90

smoothSolver:  Solving for Ux, Initial residual = 0.000190501, Final residual = 7.504e-06, No Iterations 4
smoothSolver:  Solving for Uy, Initial residual = 0.000647926, Final residual = 3.93142e-05, No Iterations 4
GAMG:  Solving for p, Initial residual = 0.0005919, Final residual = 2.6947e-05, No Iterations 2
time step continuity errors : sum local = 8.2864e-06, global = -1.4964e-16, cumulative = 6.02361e-16
smoothSolver:  Solving for nuTilda, Initial residual = 0.000135797, Final residual = 7.36953e-06, No Iterations 4
bounding nuTilda, min: -0.0033818 max: 0.397967 average: 0.0658373
ExecutionTime = 1.36 s  ClockTime = 1 s

forces wings output:
    sum of forces:
        pressure : (0.0331249 1.89772 -4.49182e-21)
        viscous  : (0.244592 -0.00413804 -2.41729e-22)
        porous   : (0 0 0)
    sum of moments:
        pressure : (-0.094886 0.00165624 0.0159193)
        viscous  : (0.000206902 0.0122296 -3.68322e-05)
        porous   : (0 0 0)

Time = 91

smoothSolver:  Solving for Ux, Initial residual = 0.000184568, Final residual = 7.34396e-06, No Iterations 4
smoothSolver:  Solving for Uy, Initial residual = 0.000621988, Final residual = 3.81425e-05, No Iterations 4
GAMG:  Solving for p, Initial residual = 0.000577758, Final residual = 5.55854e-05, No Iterations 1
time step continuity errors : sum local = 1.66508e-05, global = 3.10087e-16, cumulative = 9.12447e-16
smoothSolver:  Solving for nuTilda, Initial residual = 0.000130225, Final residual = 6.91455e-06, No Iterations 4
bounding nuTilda, min: -0.00337041 max: 0.397968 average: 0.0658052
ExecutionTime = 1.37 s  ClockTime = 1 s

Time = 92

smoothSolver:  Solving for Ux, Initial residual = 0.000175687, Final residual = 6.95045e-06, No Iterations 4
smoothSolver:  Solving for Uy, Initial residual = 0.000593045, Final residual = 3.64694e-05, No Iterations 4
GAMG:  Solving for p, Initial residual = 0.000567567, Final residual = 2.42442e-05, No Iterations 2
time step continuity errors : sum local = 7.13646e-06, global = 3.13157e-16, cumulative = 1.2256e-15
smoothSolver:  Solving for nuTilda, Initial residual = 0.000124839, Final residual = 6.44174e-06, No Iterations 4
bounding nuTilda, min: -0.00335986 max: 0.397969 average: 0.0657771
ExecutionTime = 1.38 s  ClockTime = 1 s

Time = 93

smoothSolver:  Solving for Ux, Initial residual = 0.000167293, Final residual = 6.67136e-06, No Iterations 4
smoothSolver:  Solving for Uy, Initial residual = 0.000552219, Final residual = 3.37745e-05, No Iterations 4
GAMG:  Solving for p, Initial residual = 0.000546265, Final residual = 4.99382e-05, No Iterations 1
time step continuity errors : sum local = 1.47936e-05, global = 1.85287e-16, cumulative = 1.41089e-15
smoothSolver:  Solving for nuTilda, Initial residual = 0.000119616, Final residual = 5.96147e-06, No Iterations 4
bounding nuTilda, min: -0.00334872 max: 0.397971 average: 0.0657525
ExecutionTime = 1.4 s  ClockTime = 1 s

Time = 94

smoothSolver:  Solving for Ux, Initial residual = 0.000157672, Final residual = 6.27019e-06, No Iterations 4
smoothSolver:  Solving for Uy, Initial residual = 0.000517966, Final residual = 3.17601e-05, No Iterations 4
GAMG:  Solving for p, Initial residual = 0.00052751, Final residual = 2.18609e-05, No Iterations 2
time step continuity errors : sum local = 6.54514e-06, global = 2.12743e-16, cumulative = 1.62363e-15
smoothSolver:  Solving for nuTilda, Initial residual = 0.000114369, Final residual = 5.4875e-06, No Iterations 4
bounding nuTilda, min: -0.00333835 max: 0.397972 average: 0.0657309
ExecutionTime = 1.41 s  ClockTime = 1 s

Time = 95

smoothSolver:  Solving for Ux, Initial residual = 0.000149135, Final residual = 5.99144e-06, No Iterations 4
smoothSolver:  Solving for Uy, Initial residual = 0.000474689, Final residual = 2.9033e-05, No Iterations 4
GAMG:  Solving for p, Initial residual = 0.000498976, Final residual = 4.52904e-05, No Iterations 1
time step continuity errors : sum local = 1.33925e-05, global = -5.25647e-17, cumulative = 1.57107e-15
smoothSolver:  Solving for nuTilda, Initial residual = 0.000108982, Final residual = 5.03909e-06, No Iterations 4
bounding nuTilda, min: -0.00332747 max: 0.397974 average: 0.0657116
ExecutionTime = 1.43 s  ClockTime = 1 s

forces wings output:
    sum of forces:
        pressure : (0.0335288 1.92086 -4.1257e-21)
        viscous  : (0.244298 -0.00412838 -2.79521e-22)
        porous   : (0 0 0)
    sum of moments:
        pressure : (-0.0960429 0.00167644 0.0172211)
        viscous  : (0.000206419 0.0122149 -3.80837e-05)
        porous   : (0 0 0)

Time = 96

smoothSolver:  Solving for Ux, Initial residual = 0.000140119, Final residual = 5.64004e-06, No Iterations 4
smoothSolver:  Solving for Uy, Initial residual = 0.000447269, Final residual = 2.74111e-05, No Iterations 4
GAMG:  Solving for p, Initial residual = 0.000474795, Final residual = 2.0117e-05, No Iterations 2
time step continuity errors : sum local = 6.06613e-06, global = 9.6675e-17, cumulative = 1.66774e-15
smoothSolver:  Solving for nuTilda, Initial residual = 0.000103389, Final residual = 4.62887e-06, No Iterations 4
bounding nuTilda, min: -0.00331729 max: 0.397976 average: 0.0656943
ExecutionTime = 1.44 s  ClockTime = 1 s

Time = 97

smoothSolver:  Solving for Ux, Initial residual = 0.000133053, Final residual = 5.46278e-06, No Iterations 4
smoothSolver:  Solving for Uy, Initial residual = 0.000414737, Final residual = 2.54718e-05, No Iterations 4
GAMG:  Solving for p, Initial residual = 0.000441813, Final residual = 4.00595e-05, No Iterations 1
time step continuity errors : sum local = 1.19138e-05, global = 1.13675e-16, cumulative = 1.78142e-15
smoothSolver:  Solving for nuTilda, Initial residual = 9.77563e-05, Final residual = 4.25823e-06, No Iterations 4
bounding nuTilda, min: -0.00330669 max: 0.397977 average: 0.0656788
ExecutionTime = 1.45 s  ClockTime = 1 s

Time = 98

smoothSolver:  Solving for Ux, Initial residual = 0.000125578, Final residual = 5.1685e-06, No Iterations 4
smoothSolver:  Solving for Uy, Initial residual = 0.000392915, Final residual = 2.42021e-05, No Iterations 4
GAMG:  Solving for p, Initial residual = 0.000414519, Final residual = 2.02032e-05, No Iterations 2
time step continuity errors : sum local = 6.1907e-06, global = 2.02471e-16, cumulative = 1.98389e-15
smoothSolver:  Solving for nuTilda, Initial residual = 9.20411e-05, Final residual = 3.91564e-06, No Iterations 4
bounding nuTilda, min: -0.0032967 max: 0.397979 average: 0.0656646
ExecutionTime = 1.47 s  ClockTime = 1 s

Time = 99

smoothSolver:  Solving for Ux, Initial residual = 0.000120512, Final residual = 5.0761e-06, No Iterations 4
smoothSolver:  Solving for Uy, Initial residual = 0.00036455, Final residual = 2.24496e-05, No Iterations 4
GAMG:  Solving for p, Initial residual = 0.000381072, Final residual = 3.58759e-05, No Iterations 1
time step continuity errors : sum local = 1.07596e-05, global = -7.08812e-17, cumulative = 1.91301e-15
smoothSolver:  Solving for nuTilda, Initial residual = 8.63113e-05, Final residual = 3.59212e-06, No Iterations 4
bounding nuTilda, min: -0.00328637 max: 0.39798 average: 0.0656517
ExecutionTime = 1.48 s  ClockTime = 1 s

Time = 100

smoothSolver:  Solving for Ux, Initial residual = 0.000114018, Final residual = 4.80858e-06, No Iterations 4
smoothSolver:  Solving for Uy, Initial residual = 0.000347572, Final residual = 2.13126e-05, No Iterations 4
GAMG:  Solving for p, Initial residual = 0.000355169, Final residual = 1.96506e-05, No Iterations 2
time step continuity errors : sum local = 6.08083e-06, global = 2.07022e-16, cumulative = 2.12003e-15
smoothSolver:  Solving for nuTilda, Initial residual = 8.04542e-05, Final residual = 3.27963e-06, No Iterations 4
bounding nuTilda, min: -0.00327661 max: 0.397982 average: 0.0656398
ExecutionTime = 1.5 s  ClockTime = 1 s

forces wings output:
    sum of forces:
        pressure : (0.0336884 1.93 -4.33295e-21)
        viscous  : (0.244081 -0.00412155 -2.5479e-22)
        porous   : (0 0 0)
    sum of moments:
        pressure : (-0.0965001 0.00168442 0.0113077)
        viscous  : (0.000206077 0.012204 -3.8914e-05)
        porous   : (0 0 0)

Time = 101

smoothSolver:  Solving for Ux, Initial residual = 0.000109571, Final residual = 4.69984e-06, No Iterations 4
smoothSolver:  Solving for Uy, Initial residual = 0.000320869, Final residual = 1.96071e-05, No Iterations 4
GAMG:  Solving for p, Initial residual = 0.000325686, Final residual = 3.23457e-05, No Iterations 1
time step continuity errors : sum local = 9.76702e-06, global = 3.94052e-17, cumulative = 2.15944e-15
smoothSolver:  Solving for nuTilda, Initial residual = 7.4507e-05, Final residual = 2.9767e-06, No Iterations 4
bounding nuTilda, min: -0.00326657 max: 0.397984 average: 0.0656288
ExecutionTime = 1.51 s  ClockTime = 1 s

Time = 102

smoothSolver:  Solving for Ux, Initial residual = 0.000103735, Final residual = 4.44408e-06, No Iterations 4
smoothSolver:  Solving for Uy, Initial residual = 0.000304067, Final residual = 1.85805e-05, No Iterations 4
GAMG:  Solving for p, Initial residual = 0.000303167, Final residual = 1.60418e-05, No Iterations 2
time step continuity errors : sum local = 4.7694e-06, global = 4.12082e-16, cumulative = 2.57152e-15
smoothSolver:  Solving for nuTilda, Initial residual = 6.84832e-05, Final residual = 2.68388e-06, No Iterations 4
bounding nuTilda, min: -0.00325701 max: 0.397985 average: 0.0656187
ExecutionTime = 1.52 s  ClockTime = 1 s

Time = 103

smoothSolver:  Solving for Ux, Initial residual = 9.85665e-05, Final residual = 4.23766e-06, No Iterations 4
smoothSolver:  Solving for Uy, Initial residual = 0.00027642, Final residual = 1.67859e-05, No Iterations 4
GAMG:  Solving for p, Initial residual = 0.000278305, Final residual = 1.37131e-05, No Iterations 2
time step continuity errors : sum local = 4.1267e-06, global = 4.61676e-17, cumulative = 2.61769e-15
smoothSolver:  Solving for nuTilda, Initial residual = 6.24745e-05, Final residual = 2.40509e-06, No Iterations 4
bounding nuTilda, min: -0.00324747 max: 0.397986 average: 0.0656093
ExecutionTime = 1.54 s  ClockTime = 1 s

Time = 104

smoothSolver:  Solving for Ux, Initial residual = 9.41834e-05, Final residual = 4.05727e-06, No Iterations 4
smoothSolver:  Solving for Uy, Initial residual = 0.000258727, Final residual = 1.56606e-05, No Iterations 4
GAMG:  Solving for p, Initial residual = 0.000257506, Final residual = 1.17045e-05, No Iterations 2
time step continuity errors : sum local = 3.47079e-06, global = 2.36927e-17, cumulative = 2.64138e-15
smoothSolver:  Solving for nuTilda, Initial residual = 5.65298e-05, Final residual = 2.14278e-06, No Iterations 4
bounding nuTilda, min: -0.00323806 max: 0.397988 average: 0.0656005
ExecutionTime = 1.55 s  ClockTime = 1 s

Time = 105

smoothSolver:  Solving for Ux, Initial residual = 8.99478e-05, Final residual = 3.88311e-06, No Iterations 4
smoothSolver:  Solving for Uy, Initial residual = 0.000247572, Final residual = 1.51149e-05, No Iterations 4
GAMG:  Solving for p, Initial residual = 0.000239183, Final residual = 1.15286e-05, No Iterations 2
time step continuity errors : sum local = 3.39934e-06, global = 4.66153e-17, cumulative = 2.68799e-15
smoothSolver:  Solving for nuTilda, Initial residual = 5.07169e-05, Final residual = 1.90049e-06, No Iterations 4
bounding nuTilda, min: -0.0032288 max: 0.397989 average: 0.0655923
ExecutionTime = 1.57 s  ClockTime = 1 s

forces wings output:
    sum of forces:
        pressure : (0.0339568 1.94538 -4.13128e-21)
        viscous  : (0.243902 -0.00411565 -2.80734e-22)
        porous   : (0 0 0)
    sum of moments:
        pressure : (-0.097269 0.00169784 0.0133822)
        viscous  : (0.000205782 0.0121951 -3.96552e-05)
        porous   : (0 0 0)

Time = 106

smoothSolver:  Solving for Ux, Initial residual = 8.62795e-05, Final residual = 3.7563e-06, No Iterations 4
smoothSolver:  Solving for Uy, Initial residual = 0.000243026, Final residual = 1.50016e-05, No Iterations 4
GAMG:  Solving for p, Initial residual = 0.000221808, Final residual = 1.08791e-05, No Iterations 2
time step continuity errors : sum local = 3.22864e-06, global = 1.47811e-16, cumulative = 2.8358e-15
smoothSolver:  Solving for nuTilda, Initial residual = 4.51023e-05, Final residual = 1.68083e-06, No Iterations 4
bounding nuTilda, min: -0.00321968 max: 0.39799 average: 0.0655847
ExecutionTime = 1.58 s  ClockTime = 1 s

Time = 107

smoothSolver:  Solving for Ux, Initial residual = 8.29659e-05, Final residual = 3.65218e-06, No Iterations 4
smoothSolver:  Solving for Uy, Initial residual = 0.000238234, Final residual = 1.47605e-05, No Iterations 4
GAMG:  Solving for p, Initial residual = 0.000206476, Final residual = 1.0243e-05, No Iterations 2
time step continuity errors : sum local = 3.08517e-06, global = 5.1599e-18, cumulative = 2.84096e-15
smoothSolver:  Solving for nuTilda, Initial residual = 3.97443e-05, Final residual = 1.48577e-06, No Iterations 4
bounding nuTilda, min: -0.0032107 max: 0.397991 average: 0.0655776
ExecutionTime = 1.6 s  ClockTime = 1 s

Time = 108

smoothSolver:  Solving for Ux, Initial residual = 7.95612e-05, Final residual = 3.52768e-06, No Iterations 4
smoothSolver:  Solving for Uy, Initial residual = 0.000226093, Final residual = 1.40629e-05, No Iterations 4
GAMG:  Solving for p, Initial residual = 0.000192573, Final residual = 9.93625e-06, No Iterations 2
time step continuity errors : sum local = 3.04082e-06, global = 8.06945e-17, cumulative = 2.92166e-15
smoothSolver:  Solving for nuTilda, Initial residual = 3.48418e-05, Final residual = 1.31628e-06, No Iterations 4
bounding nuTilda, min: -0.00320186 max: 0.397992 average: 0.065571
ExecutionTime = 1.61 s  ClockTime = 1 s

Time = 109

smoothSolver:  Solving for Ux, Initial residual = 7.60565e-05, Final residual = 3.38292e-06, No Iterations 4
smoothSolver:  Solving for Uy, Initial residual = 0.000209308, Final residual = 1.30592e-05, No Iterations 4
GAMG:  Solving for p, Initial residual = 0.00017989, Final residual = 9.18492e-06, No Iterations 2
time step continuity errors : sum local = 2.73674e-06, global = 7.03934e-17, cumulative = 2.99205e-15
smoothSolver:  Solving for nuTilda, Initial residual = 3.03623e-05, Final residual = 1.17177e-06, No Iterations 4
bounding nuTilda, min: -0.00319319 max: 0.397993 average: 0.0655647
ExecutionTime = 1.62 s  ClockTime = 1 s

Time = 110

smoothSolver:  Solving for Ux, Initial residual = 7.239e-05, Final residual = 3.21766e-06, No Iterations 4
smoothSolver:  Solving for Uy, Initial residual = 0.000193812, Final residual = 1.20743e-05, No Iterations 4
GAMG:  Solving for p, Initial residual = 0.000168584, Final residual = 8.63225e-06, No Iterations 2
time step continuity errors : sum local = 2.6097e-06, global = 2.23298e-16, cumulative = 3.21535e-15
smoothSolver:  Solving for nuTilda, Initial residual = 2.63754e-05, Final residual = 1.05071e-06, No Iterations 4
bounding nuTilda, min: -0.0031847 max: 0.397994 average: 0.0655588
ExecutionTime = 1.64 s  ClockTime = 1 s

forces wings output:
    sum of forces:
        pressure : (0.0340515 1.95081 -4.21215e-21)
        viscous  : (0.243767 -0.00410976 -2.69634e-22)
        porous   : (0 0 0)
    sum of moments:
        pressure : (-0.0975404 0.00170258 0.00973664)
        viscous  : (0.000205488 0.0121883 -4.04327e-05)
        porous   : (0 0 0)

Time = 111

[...]
smoothSolver:  Solving for nuTilda, Initial residual = 1.9509e-07, Final residual = 3.24183e-10, No Iterations 2
bounding nuTilda, min: -0.00294704 max: 0.398007 average: 0.0654558
ExecutionTime = 13.41 s  ClockTime = 13 s

Time = 974

smoothSolver:  Solving for Ux, Initial residual = 1.11716e-07, Final residual = 2.07238e-09, No Iterations 2
smoothSolver:  Solving for Uy, Initial residual = 2.11108e-07, Final residual = 5.14086e-09, No Iterations 2
GAMG:  Solving for p, Initial residual = 2.18023e-06, Final residual = 1.40557e-07, No Iterations 1
time step continuity errors : sum local = 4.14428e-08, global = -1.52288e-16, cumulative = 8.98499e-15
smoothSolver:  Solving for nuTilda, Initial residual = 1.93653e-07, Final residual = 3.2211e-10, No Iterations 2
bounding nuTilda, min: -0.00294704 max: 0.398007 average: 0.0654558
ExecutionTime = 13.43 s  ClockTime = 13 s

Time = 975

smoothSolver:  Solving for Ux, Initial residual = 1.10505e-07, Final residual = 2.04367e-09, No Iterations 2
smoothSolver:  Solving for Uy, Initial residual = 2.1054e-07, Final residual = 5.1265e-09, No Iterations 2
GAMG:  Solving for p, Initial residual = 2.1863e-06, Final residual = 1.40848e-07, No Iterations 1
time step continuity errors : sum local = 4.15038e-08, global = -1.22332e-16, cumulative = 8.86266e-15
smoothSolver:  Solving for nuTilda, Initial residual = 1.9509e-07, Final residual = 3.24184e-10, No Iterations 2
bounding nuTilda, min: -0.00294704 max: 0.398007 average: 0.0654558
ExecutionTime = 13.44 s  ClockTime = 13 s

forces wings output:
    sum of forces:
        pressure : (0.0358966 2.05651 -3.92095e-21)
        viscous  : (0.242448 -0.00406959 -3.15496e-22)
        porous   : (0 0 0)
    sum of moments:
        pressure : (-0.102825 0.00179483 0.00968688)
        viscous  : (0.000203479 0.0121224 -4.47924e-05)
        porous   : (0 0 0)

Time = 976

smoothSolver:  Solving for Ux, Initial residual = 1.11716e-07, Final residual = 2.0724e-09, No Iterations 2
smoothSolver:  Solving for Uy, Initial residual = 2.11109e-07, Final residual = 5.14104e-09, No Iterations 2
GAMG:  Solving for p, Initial residual = 2.18023e-06, Final residual = 1.40558e-07, No Iterations 1
time step continuity errors : sum local = 4.1443e-08, global = -6.46554e-17, cumulative = 8.79801e-15
smoothSolver:  Solving for nuTilda, Initial residual = 1.93653e-07, Final residual = 3.2211e-10, No Iterations 2
bounding nuTilda, min: -0.00294704 max: 0.398007 average: 0.0654558
ExecutionTime = 13.46 s  ClockTime = 13 s

Time = 977

smoothSolver:  Solving for Ux, Initial residual = 1.10505e-07, Final residual = 2.04369e-09, No Iterations 2
smoothSolver:  Solving for Uy, Initial residual = 2.10541e-07, Final residual = 5.12664e-09, No Iterations 2
GAMG:  Solving for p, Initial residual = 2.1863e-06, Final residual = 1.40847e-07, No Iterations 1
time step continuity errors : sum local = 4.15037e-08, global = -3.72684e-17, cumulative = 8.76074e-15
smoothSolver:  Solving for nuTilda, Initial residual = 1.9509e-07, Final residual = 3.24184e-10, No Iterations 2
bounding nuTilda, min: -0.00294704 max: 0.398007 average: 0.0654558
ExecutionTime = 13.47 s  ClockTime = 13 s

Time = 978

smoothSolver:  Solving for Ux, Initial residual = 1.11716e-07, Final residual = 2.07234e-09, No Iterations 2
smoothSolver:  Solving for Uy, Initial residual = 2.11107e-07, Final residual = 5.14062e-09, No Iterations 2
GAMG:  Solving for p, Initial residual = 2.18023e-06, Final residual = 1.40558e-07, No Iterations 1
time step continuity errors : sum local = 4.14431e-08, global = 2.78205e-17, cumulative = 8.78856e-15
smoothSolver:  Solving for nuTilda, Initial residual = 1.93653e-07, Final residual = 3.22109e-10, No Iterations 2
bounding nuTilda, min: -0.00294704 max: 0.398007 average: 0.0654558
ExecutionTime = 13.48 s  ClockTime = 13 s

Time = 979

smoothSolver:  Solving for Ux, Initial residual = 1.10505e-07, Final residual = 2.04378e-09, No Iterations 2
smoothSolver:  Solving for Uy, Initial residual = 2.10543e-07, Final residual = 5.12724e-09, No Iterations 2
GAMG:  Solving for p, Initial residual = 2.1863e-06, Final residual = 1.40847e-07, No Iterations 1
time step continuity errors : sum local = 4.15035e-08, global = 7.58616e-17, cumulative = 8.86442e-15
smoothSolver:  Solving for nuTilda, Initial residual = 1.9509e-07, Final residual = 3.24184e-10, No Iterations 2
bounding nuTilda, min: -0.00294704 max: 0.398007 average: 0.0654558
ExecutionTime = 13.49 s  ClockTime = 13 s

Time = 980

smoothSolver:  Solving for Ux, Initial residual = 1.11716e-07, Final residual = 2.07225e-09, No Iterations 2
smoothSolver:  Solving for Uy, Initial residual = 2.11105e-07, Final residual = 5.13996e-09, No Iterations 2
GAMG:  Solving for p, Initial residual = 2.18022e-06, Final residual = 1.40559e-07, No Iterations 1
time step continuity errors : sum local = 4.14432e-08, global = 9.18142e-17, cumulative = 8.95623e-15
smoothSolver:  Solving for nuTilda, Initial residual = 1.93653e-07, Final residual = 3.22109e-10, No Iterations 2
bounding nuTilda, min: -0.00294704 max: 0.398007 average: 0.0654558
ExecutionTime = 13.51 s  ClockTime = 13 s

forces wings output:
    sum of forces:
        pressure : (0.0358966 2.05651 -3.92105e-21)
        viscous  : (0.24246 -0.00406929 -3.15758e-22)
        porous   : (0 0 0)
    sum of moments:
        pressure : (-0.102825 0.00179483 0.00968576)
        viscous  : (0.000203465 0.012123 -4.49505e-05)
        porous   : (0 0 0)

Time = 981

smoothSolver:  Solving for Ux, Initial residual = 1.10505e-07, Final residual = 2.04386e-09, No Iterations 2
smoothSolver:  Solving for Uy, Initial residual = 2.10545e-07, Final residual = 5.12783e-09, No Iterations 2
GAMG:  Solving for p, Initial residual = 2.1863e-06, Final residual = 1.40847e-07, No Iterations 1
time step continuity errors : sum local = 4.15035e-08, global = -3.16639e-17, cumulative = 8.92457e-15
smoothSolver:  Solving for nuTilda, Initial residual = 1.9509e-07, Final residual = 3.24184e-10, No Iterations 2
bounding nuTilda, min: -0.00294704 max: 0.398007 average: 0.0654558
ExecutionTime = 13.52 s  ClockTime = 13 s

Time = 982

smoothSolver:  Solving for Ux, Initial residual = 1.11716e-07, Final residual = 2.07219e-09, No Iterations 2
smoothSolver:  Solving for Uy, Initial residual = 2.11103e-07, Final residual = 5.13955e-09, No Iterations 2
GAMG:  Solving for p, Initial residual = 2.18022e-06, Final residual = 1.40558e-07, No Iterations 1
time step continuity errors : sum local = 4.1443e-08, global = 2.16478e-16, cumulative = 9.14105e-15
smoothSolver:  Solving for nuTilda, Initial residual = 1.93653e-07, Final residual = 3.2211e-10, No Iterations 2
bounding nuTilda, min: -0.00294704 max: 0.398007 average: 0.0654558
ExecutionTime = 13.53 s  ClockTime = 13 s

Time = 983

smoothSolver:  Solving for Ux, Initial residual = 1.10505e-07, Final residual = 2.04388e-09, No Iterations 2
smoothSolver:  Solving for Uy, Initial residual = 2.10546e-07, Final residual = 5.12798e-09, No Iterations 2
GAMG:  Solving for p, Initial residual = 2.1863e-06, Final residual = 1.40847e-07, No Iterations 1
time step continuity errors : sum local = 4.15037e-08, global = 1.56973e-16, cumulative = 9.29802e-15
smoothSolver:  Solving for nuTilda, Initial residual = 1.9509e-07, Final residual = 3.24183e-10, No Iterations 2
bounding nuTilda, min: -0.00294704 max: 0.398007 average: 0.0654558
ExecutionTime = 13.54 s  ClockTime = 13 s

Time = 984

smoothSolver:  Solving for Ux, Initial residual = 1.11716e-07, Final residual = 2.07221e-09, No Iterations 2
smoothSolver:  Solving for Uy, Initial residual = 2.11104e-07, Final residual = 5.13969e-09, No Iterations 2
GAMG:  Solving for p, Initial residual = 2.18023e-06, Final residual = 1.40558e-07, No Iterations 1
time step continuity errors : sum local = 4.14428e-08, global = 1.78051e-17, cumulative = 9.31583e-15
smoothSolver:  Solving for nuTilda, Initial residual = 1.93653e-07, Final residual = 3.2211e-10, No Iterations 2
bounding nuTilda, min: -0.00294704 max: 0.398007 average: 0.0654558
ExecutionTime = 13.56 s  ClockTime = 13 s

Time = 985

smoothSolver:  Solving for Ux, Initial residual = 1.10505e-07, Final residual = 2.04383e-09, No Iterations 2
smoothSolver:  Solving for Uy, Initial residual = 2.10544e-07, Final residual = 5.12759e-09, No Iterations 2
GAMG:  Solving for p, Initial residual = 2.1863e-06, Final residual = 1.40847e-07, No Iterations 1
time step continuity errors : sum local = 4.15039e-08, global = -4.67968e-17, cumulative = 9.26903e-15
smoothSolver:  Solving for nuTilda, Initial residual = 1.9509e-07, Final residual = 3.24183e-10, No Iterations 2
bounding nuTilda, min: -0.00294704 max: 0.398007 average: 0.0654558
ExecutionTime = 13.57 s  ClockTime = 13 s

forces wings output:
    sum of forces:
        pressure : (0.0358966 2.05651 -3.92095e-21)
        viscous  : (0.242448 -0.00406959 -3.15496e-22)
        porous   : (0 0 0)
    sum of moments:
        pressure : (-0.102825 0.00179483 0.00968688)
        viscous  : (0.000203479 0.0121224 -4.47924e-05)
        porous   : (0 0 0)

Time = 986

smoothSolver:  Solving for Ux, Initial residual = 1.11716e-07, Final residual = 2.07229e-09, No Iterations 2
smoothSolver:  Solving for Uy, Initial residual = 2.11106e-07, Final residual = 5.14025e-09, No Iterations 2
GAMG:  Solving for p, Initial residual = 2.18023e-06, Final residual = 1.40558e-07, No Iterations 1
time step continuity errors : sum local = 4.14427e-08, global = -9.70638e-17, cumulative = 9.17197e-15
smoothSolver:  Solving for nuTilda, Initial residual = 1.93653e-07, Final residual = 3.2211e-10, No Iterations 2
bounding nuTilda, min: -0.00294704 max: 0.398007 average: 0.0654558
ExecutionTime = 13.58 s  ClockTime = 13 s

Time = 987

smoothSolver:  Solving for Ux, Initial residual = 1.10505e-07, Final residual = 2.04374e-09, No Iterations 2
smoothSolver:  Solving for Uy, Initial residual = 2.10542e-07, Final residual = 5.12698e-09, No Iterations 2
GAMG:  Solving for p, Initial residual = 2.1863e-06, Final residual = 1.40848e-07, No Iterations 1
time step continuity errors : sum local = 4.1504e-08, global = 8.87167e-17, cumulative = 9.26068e-15
smoothSolver:  Solving for nuTilda, Initial residual = 1.9509e-07, Final residual = 3.24184e-10, No Iterations 2
bounding nuTilda, min: -0.00294704 max: 0.398007 average: 0.0654558
ExecutionTime = 13.6 s  ClockTime = 13 s

Time = 988

smoothSolver:  Solving for Ux, Initial residual = 1.11716e-07, Final residual = 2.07237e-09, No Iterations 2
smoothSolver:  Solving for Uy, Initial residual = 2.11108e-07, Final residual = 5.1408e-09, No Iterations 2
GAMG:  Solving for p, Initial residual = 2.18023e-06, Final residual = 1.40558e-07, No Iterations 1
time step continuity errors : sum local = 4.14427e-08, global = 3.29439e-16, cumulative = 9.59012e-15
smoothSolver:  Solving for nuTilda, Initial residual = 1.93653e-07, Final residual = 3.2211e-10, No Iterations 2
bounding nuTilda, min: -0.00294704 max: 0.398007 average: 0.0654558
ExecutionTime = 13.61 s  ClockTime = 13 s

Time = 989

smoothSolver:  Solving for Ux, Initial residual = 1.10505e-07, Final residual = 2.04369e-09, No Iterations 2
smoothSolver:  Solving for Uy, Initial residual = 2.10541e-07, Final residual = 5.1266e-09, No Iterations 2
GAMG:  Solving for p, Initial residual = 2.1863e-06, Final residual = 1.40847e-07, No Iterations 1
time step continuity errors : sum local = 4.15039e-08, global = -8.4341e-17, cumulative = 9.50578e-15
smoothSolver:  Solving for nuTilda, Initial residual = 1.9509e-07, Final residual = 3.24184e-10, No Iterations 2
bounding nuTilda, min: -0.00294704 max: 0.398007 average: 0.0654558
ExecutionTime = 13.62 s  ClockTime = 13 s

Time = 990

smoothSolver:  Solving for Ux, Initial residual = 1.11716e-07, Final residual = 2.07238e-09, No Iterations 2
smoothSolver:  Solving for Uy, Initial residual = 2.11108e-07, Final residual = 5.14094e-09, No Iterations 2
GAMG:  Solving for p, Initial residual = 2.18023e-06, Final residual = 1.40558e-07, No Iterations 1
time step continuity errors : sum local = 4.14428e-08, global = -1.78208e-17, cumulative = 9.48796e-15
smoothSolver:  Solving for nuTilda, Initial residual = 1.93653e-07, Final residual = 3.22109e-10, No Iterations 2
bounding nuTilda, min: -0.00294704 max: 0.398007 average: 0.0654558
ExecutionTime = 13.63 s  ClockTime = 13 s

forces wings output:
    sum of forces:
        pressure : (0.0358966 2.05651 -3.92105e-21)
        viscous  : (0.24246 -0.00406929 -3.15758e-22)
        porous   : (0 0 0)
    sum of moments:
        pressure : (-0.102825 0.00179483 0.00968576)
        viscous  : (0.000203465 0.012123 -4.49505e-05)
        porous   : (0 0 0)

Time = 991

smoothSolver:  Solving for Ux, Initial residual = 1.10505e-07, Final residual = 2.04371e-09, No Iterations 2
smoothSolver:  Solving for Uy, Initial residual = 2.10541e-07, Final residual = 5.12671e-09, No Iterations 2
GAMG:  Solving for p, Initial residual = 2.1863e-06, Final residual = 1.40847e-07, No Iterations 1
time step continuity errors : sum local = 4.15038e-08, global = -1.80138e-17, cumulative = 9.46995e-15
smoothSolver:  Solving for nuTilda, Initial residual = 1.9509e-07, Final residual = 3.24184e-10, No Iterations 2
bounding nuTilda, min: -0.00294704 max: 0.398007 average: 0.0654558
ExecutionTime = 13.65 s  ClockTime = 13 s

Time = 992

smoothSolver:  Solving for Ux, Initial residual = 1.11716e-07, Final residual = 2.07234e-09, No Iterations 2
smoothSolver:  Solving for Uy, Initial residual = 2.11107e-07, Final residual = 5.1406e-09, No Iterations 2
GAMG:  Solving for p, Initial residual = 2.18022e-06, Final residual = 1.40559e-07, No Iterations 1
time step continuity errors : sum local = 4.14429e-08, global = -2.98473e-16, cumulative = 9.17147e-15
smoothSolver:  Solving for nuTilda, Initial residual = 1.93653e-07, Final residual = 3.22109e-10, No Iterations 2
bounding nuTilda, min: -0.00294704 max: 0.398007 average: 0.0654558
ExecutionTime = 13.66 s  ClockTime = 13 s

Time = 993

smoothSolver:  Solving for Ux, Initial residual = 1.10505e-07, Final residual = 2.04378e-09, No Iterations 2
smoothSolver:  Solving for Uy, Initial residual = 2.10543e-07, Final residual = 5.1272e-09, No Iterations 2
GAMG:  Solving for p, Initial residual = 2.1863e-06, Final residual = 1.40846e-07, No Iterations 1
time step continuity errors : sum local = 4.15037e-08, global = 2.96104e-16, cumulative = 9.46758e-15
smoothSolver:  Solving for nuTilda, Initial residual = 1.9509e-07, Final residual = 3.24184e-10, No Iterations 2
bounding nuTilda, min: -0.00294704 max: 0.398007 average: 0.0654558
ExecutionTime = 13.67 s  ClockTime = 13 s

Time = 994

smoothSolver:  Solving for Ux, Initial residual = 1.11716e-07, Final residual = 2.07226e-09, No Iterations 2
smoothSolver:  Solving for Uy, Initial residual = 2.11105e-07, Final residual = 5.14005e-09, No Iterations 2
GAMG:  Solving for p, Initial residual = 2.18022e-06, Final residual = 1.40559e-07, No Iterations 1
time step continuity errors : sum local = 4.14429e-08, global = 2.75573e-16, cumulative = 9.74315e-15
smoothSolver:  Solving for nuTilda, Initial residual = 1.93653e-07, Final residual = 3.22109e-10, No Iterations 2
bounding nuTilda, min: -0.00294704 max: 0.398007 average: 0.0654558
ExecutionTime = 13.69 s  ClockTime = 13 s

Time = 995

smoothSolver:  Solving for Ux, Initial residual = 1.10505e-07, Final residual = 2.04385e-09, No Iterations 2
smoothSolver:  Solving for Uy, Initial residual = 2.10545e-07, Final residual = 5.12769e-09, No Iterations 2
GAMG:  Solving for p, Initial residual = 2.1863e-06, Final residual = 1.40846e-07, No Iterations 1
time step continuity errors : sum local = 4.15037e-08, global = -9.67367e-17, cumulative = 9.64641e-15
smoothSolver:  Solving for nuTilda, Initial residual = 1.9509e-07, Final residual = 3.24184e-10, No Iterations 2
bounding nuTilda, min: -0.00294704 max: 0.398007 average: 0.0654558
ExecutionTime = 13.7 s  ClockTime = 13 s

forces wings output:
    sum of forces:
        pressure : (0.0358966 2.05651 -3.92095e-21)
        viscous  : (0.242448 -0.00406959 -3.15496e-22)
        porous   : (0 0 0)
    sum of moments:
        pressure : (-0.102825 0.00179483 0.00968688)
        viscous  : (0.000203479 0.0121224 -4.47924e-05)
        porous   : (0 0 0)

Time = 996

smoothSolver:  Solving for Ux, Initial residual = 1.11716e-07, Final residual = 2.07221e-09, No Iterations 2
smoothSolver:  Solving for Uy, Initial residual = 2.11104e-07, Final residual = 5.13973e-09, No Iterations 2
GAMG:  Solving for p, Initial residual = 2.18022e-06, Final residual = 1.40559e-07, No Iterations 1
time step continuity errors : sum local = 4.14428e-08, global = -5.34389e-17, cumulative = 9.59297e-15
smoothSolver:  Solving for nuTilda, Initial residual = 1.93653e-07, Final residual = 3.22109e-10, No Iterations 2
bounding nuTilda, min: -0.00294704 max: 0.398007 average: 0.0654558
ExecutionTime = 13.71 s  ClockTime = 13 s

Time = 997

smoothSolver:  Solving for Ux, Initial residual = 1.10505e-07, Final residual = 2.04386e-09, No Iterations 2
smoothSolver:  Solving for Uy, Initial residual = 2.10545e-07, Final residual = 5.1278e-09, No Iterations 2
GAMG:  Solving for p, Initial residual = 2.1863e-06, Final residual = 1.40847e-07, No Iterations 1
time step continuity errors : sum local = 4.15038e-08, global = 2.52438e-17, cumulative = 9.61822e-15
smoothSolver:  Solving for nuTilda, Initial residual = 1.9509e-07, Final residual = 3.24184e-10, No Iterations 2
bounding nuTilda, min: -0.00294704 max: 0.398007 average: 0.0654558
ExecutionTime = 13.72 s  ClockTime = 13 s

Time = 998

smoothSolver:  Solving for Ux, Initial residual = 1.11716e-07, Final residual = 2.07223e-09, No Iterations 2
smoothSolver:  Solving for Uy, Initial residual = 2.11104e-07, Final residual = 5.13984e-09, No Iterations 2
GAMG:  Solving for p, Initial residual = 2.18022e-06, Final residual = 1.40558e-07, No Iterations 1
time step continuity errors : sum local = 4.14427e-08, global = 1.34962e-17, cumulative = 9.63171e-15
smoothSolver:  Solving for nuTilda, Initial residual = 1.93653e-07, Final residual = 3.2211e-10, No Iterations 2
bounding nuTilda, min: -0.00294704 max: 0.398007 average: 0.0654558
ExecutionTime = 13.74 s  ClockTime = 13 s

Time = 999

smoothSolver:  Solving for Ux, Initial residual = 1.10505e-07, Final residual = 2.04382e-09, No Iterations 2
smoothSolver:  Solving for Uy, Initial residual = 2.10544e-07, Final residual = 5.12748e-09, No Iterations 2
GAMG:  Solving for p, Initial residual = 2.1863e-06, Final residual = 1.40847e-07, No Iterations 1
time step continuity errors : sum local = 4.1504e-08, global = 1.64203e-16, cumulative = 9.79592e-15
smoothSolver:  Solving for nuTilda, Initial residual = 1.9509e-07, Final residual = 3.24184e-10, No Iterations 2
bounding nuTilda, min: -0.00294704 max: 0.398007 average: 0.0654558
ExecutionTime = 13.75 s  ClockTime = 14 s

Time = 1000

smoothSolver:  Solving for Ux, Initial residual = 1.11716e-07, Final residual = 2.07229e-09, No Iterations 2
smoothSolver:  Solving for Uy, Initial residual = 2.11106e-07, Final residual = 5.1403e-09, No Iterations 2
GAMG:  Solving for p, Initial residual = 2.18023e-06, Final residual = 1.40558e-07, No Iterations 1
time step continuity errors : sum local = 4.14425e-08, global = -2.34916e-17, cumulative = 9.77243e-15
smoothSolver:  Solving for nuTilda, Initial residual = 1.93653e-07, Final residual = 3.2211e-10, No Iterations 2
bounding nuTilda, min: -0.00294704 max: 0.398007 average: 0.0654558
ExecutionTime = 13.79 s  ClockTime = 14 s

forces wings output:
    sum of forces:
        pressure : (0.0358966 2.05651 -3.92105e-21)
        viscous  : (0.24246 -0.00406929 -3.15758e-22)
        porous   : (0 0 0)
    sum of moments:
        pressure : (-0.102825 0.00179483 0.00968576)
        viscous  : (0.000203465 0.012123 -4.49505e-05)
        porous   : (0 0 0)

End

