/*---------------------------------------------------------------------------*\
| =========                 |                                                 |
| \\      /  F ield         | OpenFOAM: The Open Source CFD Toolbox           |
|  \\    /   O peration     | Version:  2.3.0                                 |
|   \\  /    A nd           | Web:      www.OpenFOAM.org                      |
|    \\/     M anipulation  |                                                 |
\*---------------------------------------------------------------------------*/
Build  : 2.3.0-f5222ca19ce6
Exec   : simpleFoam -case Runs/first_arc_300_2/case
Date   : Jan 12 2015
Time   : 00:43:18
Host   : "lordvon-XPS-8300"
PID    : 9947
Case   : Runs/first_arc_300_2/case
nProcs : 1
sigFpe : Enabling floating point exception trapping (FOAM_SIGFPE).
fileModificationChecking : Monitoring run-time modified files using timeStampMaster
allowSystemOperations : Disallowing user-supplied system call operations

// * * * * * * * * * * * * * * * * * * * * * * * * * * * * * * * * * * * * * //
Create time

Create mesh for time = 0

Reading field p

Reading field U

Reading/calculating face flux field phi

Selecting incompressible transport model Newtonian
Selecting RAS turbulence model SpalartAllmaras
SpalartAllmarasCoeffs
{
    sigmaNut        0.66666;
    kappa           0.41;
    Cb1             0.1355;
    Cb2             0.622;
    Cw2             0.3;
    Cw3             2;
    Cv1             7.1;
    Cv2             5;
}

    Employing Ashford correction
No finite volume options present


SIMPLE: convergence criteria
    field p	 tolerance 1e-12
    field U	 tolerance 1e-12
    field nuTilda	 tolerance 1e-12


Starting time loop

forces wings:
    Not including porosity effects

Time = 1

smoothSolver:  Solving for Ux, Initial residual = 1, Final residual = 0.00458843, No Iterations 6
smoothSolver:  Solving for Uy, Initial residual = 1, Final residual = 0.00807935, No Iterations 4
GAMG:  Solving for p, Initial residual = 1, Final residual = 0.00818869, No Iterations 9
time step continuity errors : sum local = 0.000818878, global = -4.07458e-18, cumulative = -4.07458e-18
smoothSolver:  Solving for nuTilda, Initial residual = 1, Final residual = 0.0039989, No Iterations 4
ExecutionTime = 0.36 s  ClockTime = 0 s

Time = 2

smoothSolver:  Solving for Ux, Initial residual = 0.526732, Final residual = 0.00265221, No Iterations 8
smoothSolver:  Solving for Uy, Initial residual = 0.611715, Final residual = 0.00339516, No Iterations 8
GAMG:  Solving for p, Initial residual = 0.738324, Final residual = 0.00478374, No Iterations 6
time step continuity errors : sum local = 0.000947326, global = -4.20477e-17, cumulative = -4.61223e-17
smoothSolver:  Solving for nuTilda, Initial residual = 0.186073, Final residual = 0.000733365, No Iterations 6
ExecutionTime = 0.45 s  ClockTime = 0 s

Time = 3

smoothSolver:  Solving for Ux, Initial residual = 0.199025, Final residual = 0.000976045, No Iterations 8
smoothSolver:  Solving for Uy, Initial residual = 0.210037, Final residual = 0.0011455, No Iterations 8
GAMG:  Solving for p, Initial residual = 0.571155, Final residual = 0.00432029, No Iterations 8
time step continuity errors : sum local = 0.00117782, global = -1.69508e-16, cumulative = -2.1563e-16
smoothSolver:  Solving for nuTilda, Initial residual = 0.0951255, Final residual = 0.000872053, No Iterations 6
ExecutionTime = 0.55 s  ClockTime = 1 s

Time = 4

smoothSolver:  Solving for Ux, Initial residual = 0.0693418, Final residual = 0.000262885, No Iterations 8
smoothSolver:  Solving for Uy, Initial residual = 0.0672784, Final residual = 0.000341868, No Iterations 8
GAMG:  Solving for p, Initial residual = 0.442762, Final residual = 0.0031493, No Iterations 7
time step continuity errors : sum local = 0.000875771, global = -8.32505e-17, cumulative = -2.9888e-16
smoothSolver:  Solving for nuTilda, Initial residual = 0.0720956, Final residual = 0.000205715, No Iterations 8
ExecutionTime = 0.64 s  ClockTime = 1 s

Time = 5

smoothSolver:  Solving for Ux, Initial residual = 0.193617, Final residual = 0.000945351, No Iterations 8
smoothSolver:  Solving for Uy, Initial residual = 0.272805, Final residual = 0.00145515, No Iterations 8
GAMG:  Solving for p, Initial residual = 0.371168, Final residual = 0.00294694, No Iterations 6
time step continuity errors : sum local = 0.000863664, global = -1.17124e-16, cumulative = -4.16004e-16
smoothSolver:  Solving for nuTilda, Initial residual = 0.0590191, Final residual = 0.00018617, No Iterations 8
ExecutionTime = 0.73 s  ClockTime = 1 s

forces wings output:
    sum of forces:
        pressure : (-154.97 -242.574 -1.75735e-18)
        viscous  : (0.535854 -0.0132759 -3.14659e-20)
        porous   : (0 0 0)
    sum of moments:
        pressure : (12.1287 -7.7485 -335.163)
        viscous  : (0.000663794 0.0267927 -0.0401967)
        porous   : (0 0 0)

Time = 6

smoothSolver:  Solving for Ux, Initial residual = 0.157902, Final residual = 0.000726691, No Iterations 8
smoothSolver:  Solving for Uy, Initial residual = 0.226086, Final residual = 0.00119051, No Iterations 8
GAMG:  Solving for p, Initial residual = 0.304585, Final residual = 0.00239561, No Iterations 8
time step continuity errors : sum local = 0.000733653, global = 1.21811e-16, cumulative = -2.94193e-16
smoothSolver:  Solving for nuTilda, Initial residual = 0.0488231, Final residual = 0.000161687, No Iterations 8
ExecutionTime = 0.83 s  ClockTime = 1 s

Time = 7

smoothSolver:  Solving for Ux, Initial residual = 0.104529, Final residual = 0.000419829, No Iterations 8
smoothSolver:  Solving for Uy, Initial residual = 0.147942, Final residual = 0.000751089, No Iterations 8
GAMG:  Solving for p, Initial residual = 0.228623, Final residual = 0.00164331, No Iterations 6
time step continuity errors : sum local = 0.000498074, global = 7.56268e-17, cumulative = -2.18566e-16
smoothSolver:  Solving for nuTilda, Initial residual = 0.0408002, Final residual = 0.00014007, No Iterations 8
ExecutionTime = 0.94 s  ClockTime = 1 s

Time = 8

smoothSolver:  Solving for Ux, Initial residual = 0.123714, Final residual = 0.000580727, No Iterations 8
smoothSolver:  Solving for Uy, Initial residual = 0.159031, Final residual = 0.000825822, No Iterations 8
GAMG:  Solving for p, Initial residual = 0.237271, Final residual = 0.00181776, No Iterations 6
time step continuity errors : sum local = 0.00057428, global = 1.26573e-16, cumulative = -9.19924e-17
smoothSolver:  Solving for nuTilda, Initial residual = 0.0344978, Final residual = 0.000122143, No Iterations 8
ExecutionTime = 1.03 s  ClockTime = 1 s

Time = 9

smoothSolver:  Solving for Ux, Initial residual = 0.0540286, Final residual = 0.00022872, No Iterations 8
smoothSolver:  Solving for Uy, Initial residual = 0.0483761, Final residual = 0.000241151, No Iterations 8
GAMG:  Solving for p, Initial residual = 0.196565, Final residual = 0.00137717, No Iterations 7
time step continuity errors : sum local = 0.000439138, global = -4.22376e-17, cumulative = -1.3423e-16
smoothSolver:  Solving for nuTilda, Initial residual = 0.0294991, Final residual = 0.000107778, No Iterations 8
ExecutionTime = 1.12 s  ClockTime = 1 s

Time = 10

smoothSolver:  Solving for Ux, Initial residual = 0.0522758, Final residual = 0.000217867, No Iterations 8
smoothSolver:  Solving for Uy, Initial residual = 0.0690015, Final residual = 0.000344961, No Iterations 8
GAMG:  Solving for p, Initial residual = 0.155409, Final residual = 0.000889734, No Iterations 5
time step continuity errors : sum local = 0.000282036, global = 4.84337e-17, cumulative = -8.57963e-17
smoothSolver:  Solving for nuTilda, Initial residual = 0.0256684, Final residual = 9.66228e-05, No Iterations 8
ExecutionTime = 1.21 s  ClockTime = 1 s

forces wings output:
    sum of forces:
        pressure : (-91.0363 -131.263 -1.68025e-18)
        viscous  : (0.505896 -0.022206 -2.70917e-20)
        porous   : (0 0 0)
    sum of moments:
        pressure : (6.56317 -4.55181 -194.814)
        viscous  : (0.0011103 0.0252948 -0.0517636)
        porous   : (0 0 0)

Time = 11

smoothSolver:  Solving for Ux, Initial residual = 0.0684473, Final residual = 0.000315663, No Iterations 8
smoothSolver:  Solving for Uy, Initial residual = 0.0953759, Final residual = 0.000484089, No Iterations 8
GAMG:  Solving for p, Initial residual = 0.153818, Final residual = 0.00116558, No Iterations 6
time step continuity errors : sum local = 0.00037763, global = -1.55842e-16, cumulative = -2.41638e-16
smoothSolver:  Solving for nuTilda, Initial residual = 0.0225549, Final residual = 8.74735e-05, No Iterations 8
ExecutionTime = 1.31 s  ClockTime = 1 s

Time = 12

smoothSolver:  Solving for Ux, Initial residual = 0.0329489, Final residual = 0.000127225, No Iterations 8
smoothSolver:  Solving for Uy, Initial residual = 0.0261137, Final residual = 0.000119084, No Iterations 8
GAMG:  Solving for p, Initial residual = 0.120137, Final residual = 0.00119129, No Iterations 6
time step continuity errors : sum local = 0.000383308, global = 1.11432e-17, cumulative = -2.30495e-16
smoothSolver:  Solving for nuTilda, Initial residual = 0.0199721, Final residual = 7.96225e-05, No Iterations 8
ExecutionTime = 1.4 s  ClockTime = 1 s

Time = 13

smoothSolver:  Solving for Ux, Initial residual = 0.0406252, Final residual = 0.000165275, No Iterations 8
smoothSolver:  Solving for Uy, Initial residual = 0.057045, Final residual = 0.000283529, No Iterations 8
GAMG:  Solving for p, Initial residual = 0.0967316, Final residual = 0.000723274, No Iterations 5
time step continuity errors : sum local = 0.00022981, global = -2.76345e-16, cumulative = -5.0684e-16
smoothSolver:  Solving for nuTilda, Initial residual = 0.0178059, Final residual = 7.28096e-05, No Iterations 8
ExecutionTime = 1.5 s  ClockTime = 1 s

Time = 14

smoothSolver:  Solving for Ux, Initial residual = 0.0386927, Final residual = 0.000169505, No Iterations 8
smoothSolver:  Solving for Uy, Initial residual = 0.0458151, Final residual = 0.000228379, No Iterations 8
GAMG:  Solving for p, Initial residual = 0.100388, Final residual = 0.00082337, No Iterations 6
time step continuity errors : sum local = 0.000266488, global = -3.30135e-17, cumulative = -5.39853e-16
smoothSolver:  Solving for nuTilda, Initial residual = 0.0160091, Final residual = 6.70148e-05, No Iterations 8
ExecutionTime = 1.59 s  ClockTime = 2 s

Time = 15

smoothSolver:  Solving for Ux, Initial residual = 0.0191907, Final residual = 7.30335e-05, No Iterations 8
smoothSolver:  Solving for Uy, Initial residual = 0.0134654, Final residual = 5.98383e-05, No Iterations 8
GAMG:  Solving for p, Initial residual = 0.0784453, Final residual = 0.000774579, No Iterations 5
time step continuity errors : sum local = 0.000246849, global = -1.57126e-16, cumulative = -6.96979e-16
smoothSolver:  Solving for nuTilda, Initial residual = 0.0144875, Final residual = 6.2124e-05, No Iterations 8
ExecutionTime = 1.68 s  ClockTime = 2 s

forces wings output:
    sum of forces:
        pressure : (-29.6453 -32.7267 -7.95608e-19)
        viscous  : (0.492283 -0.0208016 -8.61734e-21)
        porous   : (0 0 0)
    sum of moments:
        pressure : (1.63633 -1.48227 -61.5893)
        viscous  : (0.00104008 0.0246141 -0.0486227)
        porous   : (0 0 0)

Time = 16

smoothSolver:  Solving for Ux, Initial residual = 0.0243637, Final residual = 0.000101611, No Iterations 8
smoothSolver:  Solving for Uy, Initial residual = 0.0329708, Final residual = 0.000161229, No Iterations 8
GAMG:  Solving for p, Initial residual = 0.067768, Final residual = 0.000586199, No Iterations 5
time step continuity errors : sum local = 0.000185655, global = 1.79144e-16, cumulative = -5.17835e-16
smoothSolver:  Solving for nuTilda, Initial residual = 0.0132163, Final residual = 5.80394e-05, No Iterations 8
ExecutionTime = 1.77 s  ClockTime = 2 s

Time = 17

smoothSolver:  Solving for Ux, Initial residual = 0.0221201, Final residual = 9.56857e-05, No Iterations 8
smoothSolver:  Solving for Uy, Initial residual = 0.0258686, Final residual = 0.000125152, No Iterations 8
GAMG:  Solving for p, Initial residual = 0.0683303, Final residual = 0.000675068, No Iterations 5
time step continuity errors : sum local = 0.000216775, global = -4.95877e-17, cumulative = -5.67423e-16
smoothSolver:  Solving for nuTilda, Initial residual = 0.0121431, Final residual = 5.45024e-05, No Iterations 8
ExecutionTime = 1.86 s  ClockTime = 2 s

Time = 18

smoothSolver:  Solving for Ux, Initial residual = 0.0128224, Final residual = 4.58312e-05, No Iterations 8
smoothSolver:  Solving for Uy, Initial residual = 0.0133062, Final residual = 5.97038e-05, No Iterations 8
GAMG:  Solving for p, Initial residual = 0.0533131, Final residual = 0.000336546, No Iterations 6
time step continuity errors : sum local = 0.000106504, global = -6.00849e-17, cumulative = -6.27508e-16
smoothSolver:  Solving for nuTilda, Initial residual = 0.0112164, Final residual = 5.12786e-05, No Iterations 8
ExecutionTime = 1.95 s  ClockTime = 2 s

Time = 19

smoothSolver:  Solving for Ux, Initial residual = 0.0166237, Final residual = 6.49037e-05, No Iterations 8
smoothSolver:  Solving for Uy, Initial residual = 0.0216826, Final residual = 0.00010364, No Iterations 8
GAMG:  Solving for p, Initial residual = 0.0476193, Final residual = 0.000387335, No Iterations 5
time step continuity errors : sum local = 0.000122591, global = -2.19747e-17, cumulative = -6.49482e-16
smoothSolver:  Solving for nuTilda, Initial residual = 0.0104099, Final residual = 4.82806e-05, No Iterations 8
ExecutionTime = 2.04 s  ClockTime = 2 s

Time = 20

smoothSolver:  Solving for Ux, Initial residual = 0.0141209, Final residual = 5.60865e-05, No Iterations 8
smoothSolver:  Solving for Uy, Initial residual = 0.0130091, Final residual = 6.11764e-05, No Iterations 8
GAMG:  Solving for p, Initial residual = 0.0442876, Final residual = 0.000199638, No Iterations 6
time step continuity errors : sum local = 6.30788e-05, global = 5.3181e-17, cumulative = -5.96301e-16
smoothSolver:  Solving for nuTilda, Initial residual = 0.00970817, Final residual = 4.55273e-05, No Iterations 8
ExecutionTime = 2.13 s  ClockTime = 2 s

forces wings output:
    sum of forces:
        pressure : (-3.54331 6.75927 -2.2245e-19)
        viscous  : (0.47983 -0.0180679 1.27946e-21)
        porous   : (0 0 0)
    sum of moments:
        pressure : (-0.337964 -0.177166 -5.39019)
        viscous  : (0.000903394 0.0239915 -0.0441714)
        porous   : (0 0 0)

Time = 21

smoothSolver:  Solving for Ux, Initial residual = 0.0104669, Final residual = 3.90074e-05, No Iterations 8
smoothSolver:  Solving for Uy, Initial residual = 0.00942849, Final residual = 4.20526e-05, No Iterations 8
GAMG:  Solving for p, Initial residual = 0.0345187, Final residual = 0.000311771, No Iterations 5
time step continuity errors : sum local = 9.93978e-05, global = 2.25827e-16, cumulative = -3.70474e-16
smoothSolver:  Solving for nuTilda, Initial residual = 0.00910299, Final residual = 4.30691e-05, No Iterations 8
ExecutionTime = 2.23 s  ClockTime = 2 s

Time = 22

smoothSolver:  Solving for Ux, Initial residual = 0.0109937, Final residual = 4.32848e-05, No Iterations 8
smoothSolver:  Solving for Uy, Initial residual = 0.0131438, Final residual = 6.06647e-05, No Iterations 8
GAMG:  Solving for p, Initial residual = 0.0313319, Final residual = 0.000246669, No Iterations 5
time step continuity errors : sum local = 7.72573e-05, global = 1.64719e-17, cumulative = -3.54002e-16
smoothSolver:  Solving for nuTilda, Initial residual = 0.00858196, Final residual = 4.08772e-05, No Iterations 8
ExecutionTime = 2.31 s  ClockTime = 2 s

Time = 23

smoothSolver:  Solving for Ux, Initial residual = 0.00825826, Final residual = 3.21485e-05, No Iterations 8
smoothSolver:  Solving for Uy, Initial residual = 0.00696918, Final residual = 3.02831e-05, No Iterations 8
GAMG:  Solving for p, Initial residual = 0.0288351, Final residual = 0.000228467, No Iterations 5
time step continuity errors : sum local = 7.22935e-05, global = -5.99293e-17, cumulative = -4.13932e-16
smoothSolver:  Solving for nuTilda, Initial residual = 0.00812651, Final residual = 3.88905e-05, No Iterations 8
ExecutionTime = 2.4 s  ClockTime = 2 s

Time = 24

smoothSolver:  Solving for Ux, Initial residual = 0.00673494, Final residual = 2.32454e-05, No Iterations 8
smoothSolver:  Solving for Uy, Initial residual = 0.00767846, Final residual = 3.41405e-05, No Iterations 8
GAMG:  Solving for p, Initial residual = 0.0239511, Final residual = 0.000220844, No Iterations 5
time step continuity errors : sum local = 7.06097e-05, global = 2.15081e-16, cumulative = -1.98851e-16
smoothSolver:  Solving for nuTilda, Initial residual = 0.007716, Final residual = 3.70117e-05, No Iterations 8
ExecutionTime = 2.5 s  ClockTime = 2 s

Time = 25

smoothSolver:  Solving for Ux, Initial residual = 0.00764588, Final residual = 2.84016e-05, No Iterations 8
smoothSolver:  Solving for Uy, Initial residual = 0.00798504, Final residual = 3.67318e-05, No Iterations 8
GAMG:  Solving for p, Initial residual = 0.0219561, Final residual = 0.000162881, No Iterations 5
time step continuity errors : sum local = 5.16579e-05, global = -7.77517e-18, cumulative = -2.06626e-16
smoothSolver:  Solving for nuTilda, Initial residual = 0.00733443, Final residual = 3.52446e-05, No Iterations 8
ExecutionTime = 2.59 s  ClockTime = 3 s

forces wings output:
    sum of forces:
        pressure : (2.85438 16.9328 -2.31302e-20)
        viscous  : (0.466529 -0.0164352 3.75525e-21)
        porous   : (0 0 0)
    sum of moments:
        pressure : (-0.846638 0.142719 8.4759)
        viscous  : (0.000821762 0.0233265 -0.0413061)
        porous   : (0 0 0)

Time = 26

smoothSolver:  Solving for Ux, Initial residual = 0.00661775, Final residual = 2.44933e-05, No Iterations 8
smoothSolver:  Solving for Uy, Initial residual = 0.00407729, Final residual = 1.79023e-05, No Iterations 8
GAMG:  Solving for p, Initial residual = 0.0193799, Final residual = 0.000134086, No Iterations 5
time step continuity errors : sum local = 4.24184e-05, global = 3.98234e-17, cumulative = -1.66803e-16
smoothSolver:  Solving for nuTilda, Initial residual = 0.0069758, Final residual = 3.35751e-05, No Iterations 8
ExecutionTime = 2.68 s  ClockTime = 3 s

Time = 27

smoothSolver:  Solving for Ux, Initial residual = 0.00608199, Final residual = 2.27552e-05, No Iterations 8
smoothSolver:  Solving for Uy, Initial residual = 0.00487936, Final residual = 2.14141e-05, No Iterations 8
GAMG:  Solving for p, Initial residual = 0.016537, Final residual = 0.000158523, No Iterations 5
time step continuity errors : sum local = 5.06367e-05, global = 1.45491e-17, cumulative = -1.52253e-16
smoothSolver:  Solving for nuTilda, Initial residual = 0.00666107, Final residual = 3.20789e-05, No Iterations 8
ExecutionTime = 2.77 s  ClockTime = 3 s

Time = 28

smoothSolver:  Solving for Ux, Initial residual = 0.00550896, Final residual = 2.10816e-05, No Iterations 8
smoothSolver:  Solving for Uy, Initial residual = 0.00472776, Final residual = 2.09719e-05, No Iterations 8
GAMG:  Solving for p, Initial residual = 0.0149249, Final residual = 0.000112368, No Iterations 5
time step continuity errors : sum local = 3.54817e-05, global = 4.06912e-17, cumulative = -1.11562e-16
smoothSolver:  Solving for nuTilda, Initial residual = 0.00636566, Final residual = 3.06747e-05, No Iterations 8
bounding nuTilda, min: -2.71963e-06 max: 0.404799 average: 0.0855734
ExecutionTime = 2.86 s  ClockTime = 3 s

Time = 29

smoothSolver:  Solving for Ux, Initial residual = 0.00449525, Final residual = 1.67041e-05, No Iterations 8
smoothSolver:  Solving for Uy, Initial residual = 0.00318901, Final residual = 1.34944e-05, No Iterations 8
GAMG:  Solving for p, Initial residual = 0.0131359, Final residual = 6.85153e-05, No Iterations 5
time step continuity errors : sum local = 2.16657e-05, global = 2.44994e-16, cumulative = 1.33432e-16
smoothSolver:  Solving for nuTilda, Initial residual = 0.0061068, Final residual = 2.94191e-05, No Iterations 8
ExecutionTime = 2.95 s  ClockTime = 3 s

Time = 30

smoothSolver:  Solving for Ux, Initial residual = 0.00441285, Final residual = 1.58707e-05, No Iterations 8
smoothSolver:  Solving for Uy, Initial residual = 0.00385098, Final residual = 1.69547e-05, No Iterations 8
GAMG:  Solving for p, Initial residual = 0.0115537, Final residual = 6.90422e-05, No Iterations 5
time step continuity errors : sum local = 2.18831e-05, global = 6.49584e-17, cumulative = 1.98391e-16
smoothSolver:  Solving for nuTilda, Initial residual = 0.00584831, Final residual = 2.81761e-05, No Iterations 8
ExecutionTime = 3.04 s  ClockTime = 3 s

forces wings output:
    sum of forces:
        pressure : (2.47882 18.1833 9.31346e-22)
        viscous  : (0.45326 -0.0157122 3.15268e-21)
        porous   : (0 0 0)
    sum of moments:
        pressure : (-0.909164 0.123941 8.00325)
        viscous  : (0.000785609 0.022663 -0.0396408)
        porous   : (0 0 0)

Time = 31

smoothSolver:  Solving for Ux, Initial residual = 0.00462326, Final residual = 1.70711e-05, No Iterations 8
smoothSolver:  Solving for Uy, Initial residual = 0.00310841, Final residual = 1.39315e-05, No Iterations 8
GAMG:  Solving for p, Initial residual = 0.0101925, Final residual = 6.49606e-05, No Iterations 5
time step continuity errors : sum local = 2.05126e-05, global = 1.08568e-16, cumulative = 3.06959e-16
smoothSolver:  Solving for nuTilda, Initial residual = 0.00561641, Final residual = 2.70722e-05, No Iterations 8
bounding nuTilda, min: -6.34981e-05 max: 0.404602 average: 0.0829211
ExecutionTime = 3.13 s  ClockTime = 3 s

Time = 32

smoothSolver:  Solving for Ux, Initial residual = 0.0044575, Final residual = 1.66894e-05, No Iterations 8
smoothSolver:  Solving for Uy, Initial residual = 0.0023065, Final residual = 1.01941e-05, No Iterations 8
GAMG:  Solving for p, Initial residual = 0.00910946, Final residual = 8.64946e-05, No Iterations 4
time step continuity errors : sum local = 2.73942e-05, global = 9.56405e-17, cumulative = 4.02599e-16
smoothSolver:  Solving for nuTilda, Initial residual = 0.00538336, Final residual = 2.59467e-05, No Iterations 8
bounding nuTilda, min: -7.19472e-05 max: 0.404536 average: 0.0820785
ExecutionTime = 3.21 s  ClockTime = 3 s

Time = 33

smoothSolver:  Solving for Ux, Initial residual = 0.00424131, Final residual = 1.61842e-05, No Iterations 8
smoothSolver:  Solving for Uy, Initial residual = 0.00242574, Final residual = 1.08673e-05, No Iterations 8
GAMG:  Solving for p, Initial residual = 0.00821845, Final residual = 7.13128e-05, No Iterations 5
time step continuity errors : sum local = 2.26545e-05, global = 1.05007e-18, cumulative = 4.03649e-16
smoothSolver:  Solving for nuTilda, Initial residual = 0.00517774, Final residual = 2.49835e-05, No Iterations 8
ExecutionTime = 3.3 s  ClockTime = 3 s

Time = 34

smoothSolver:  Solving for Ux, Initial residual = 0.0038786, Final residual = 1.50491e-05, No Iterations 8
smoothSolver:  Solving for Uy, Initial residual = 0.00204057, Final residual = 9.19211e-06, No Iterations 8
GAMG:  Solving for p, Initial residual = 0.00698322, Final residual = 4.3672e-05, No Iterations 5
time step continuity errors : sum local = 1.39175e-05, global = -2.44715e-17, cumulative = 3.79178e-16
smoothSolver:  Solving for nuTilda, Initial residual = 0.00497108, Final residual = 2.39941e-05, No Iterations 8
bounding nuTilda, min: -0.000174636 max: 0.404464 average: 0.0804561
ExecutionTime = 3.39 s  ClockTime = 3 s

Time = 35

smoothSolver:  Solving for Ux, Initial residual = 0.00358578, Final residual = 1.39379e-05, No Iterations 8
smoothSolver:  Solving for Uy, Initial residual = 0.00209165, Final residual = 9.32496e-06, No Iterations 8
GAMG:  Solving for p, Initial residual = 0.00638078, Final residual = 5.17467e-05, No Iterations 4
time step continuity errors : sum local = 1.64903e-05, global = 2.76228e-18, cumulative = 3.8194e-16
smoothSolver:  Solving for nuTilda, Initial residual = 0.00479212, Final residual = 2.31498e-05, No Iterations 8
bounding nuTilda, min: -2.35323e-05 max: 0.404459 average: 0.0796748
ExecutionTime = 3.48 s  ClockTime = 3 s

forces wings output:
    sum of forces:
        pressure : (1.49121 18.0344 -1.17549e-20)
        viscous  : (0.439551 -0.0152445 2.51188e-21)
        porous   : (0 0 0)
    sum of moments:
        pressure : (-0.90172 0.0745604 6.12535)
        viscous  : (0.000762226 0.0219775 -0.0383851)
        porous   : (0 0 0)

Time = 36

smoothSolver:  Solving for Ux, Initial residual = 0.0035409, Final residual = 1.38053e-05, No Iterations 8
smoothSolver:  Solving for Uy, Initial residual = 0.00206932, Final residual = 9.52514e-06, No Iterations 8
GAMG:  Solving for p, Initial residual = 0.00624262, Final residual = 3.36128e-05, No Iterations 5
time step continuity errors : sum local = 1.06802e-05, global = 8.17092e-17, cumulative = 4.63649e-16
smoothSolver:  Solving for nuTilda, Initial residual = 0.00461142, Final residual = 2.22683e-05, No Iterations 8
bounding nuTilda, min: -2.84252e-06 max: 0.404464 average: 0.0789073
ExecutionTime = 3.57 s  ClockTime = 4 s

Time = 37

smoothSolver:  Solving for Ux, Initial residual = 0.00358573, Final residual = 1.41249e-05, No Iterations 8
smoothSolver:  Solving for Uy, Initial residual = 0.0016322, Final residual = 7.80399e-06, No Iterations 8
GAMG:  Solving for p, Initial residual = 0.00550975, Final residual = 4.3881e-05, No Iterations 4
time step continuity errors : sum local = 1.39909e-05, global = 7.03962e-17, cumulative = 5.34045e-16
smoothSolver:  Solving for nuTilda, Initial residual = 0.00444861, Final residual = 2.15028e-05, No Iterations 8
ExecutionTime = 3.66 s  ClockTime = 4 s

Time = 38

smoothSolver:  Solving for Ux, Initial residual = 0.00354575, Final residual = 1.40685e-05, No Iterations 8
smoothSolver:  Solving for Uy, Initial residual = 0.00155931, Final residual = 7.42231e-06, No Iterations 8
GAMG:  Solving for p, Initial residual = 0.00492166, Final residual = 3.64503e-05, No Iterations 4
time step continuity errors : sum local = 1.15843e-05, global = 4.73251e-17, cumulative = 5.8137e-16
smoothSolver:  Solving for nuTilda, Initial residual = 0.00428823, Final residual = 2.07111e-05, No Iterations 8
bounding nuTilda, min: -0.000103455 max: 0.404476 average: 0.0774271
ExecutionTime = 3.74 s  ClockTime = 4 s

Time = 39

smoothSolver:  Solving for Ux, Initial residual = 0.00343007, Final residual = 1.36778e-05, No Iterations 8
smoothSolver:  Solving for Uy, Initial residual = 0.00152449, Final residual = 7.30201e-06, No Iterations 8
GAMG:  Solving for p, Initial residual = 0.00473892, Final residual = 3.41661e-05, No Iterations 5
time step continuity errors : sum local = 1.09026e-05, global = 1.29151e-16, cumulative = 7.10521e-16
smoothSolver:  Solving for nuTilda, Initial residual = 0.00414545, Final residual = 2.00193e-05, No Iterations 8
ExecutionTime = 3.83 s  ClockTime = 4 s

Time = 40

smoothSolver:  Solving for Ux, Initial residual = 0.0032808, Final residual = 1.31281e-05, No Iterations 8
smoothSolver:  Solving for Uy, Initial residual = 0.00147758, Final residual = 7.12099e-06, No Iterations 8
GAMG:  Solving for p, Initial residual = 0.00435338, Final residual = 3.86153e-05, No Iterations 4
time step continuity errors : sum local = 1.22252e-05, global = -1.36767e-17, cumulative = 6.96844e-16
smoothSolver:  Solving for nuTilda, Initial residual = 0.00400549, Final residual = 1.93224e-05, No Iterations 8
bounding nuTilda, min: -5.50463e-05 max: 0.404471 average: 0.0760102
ExecutionTime = 3.92 s  ClockTime = 4 s

forces wings output:
    sum of forces:
        pressure : (1.02627 17.6299 -2.02017e-20)
        viscous  : (0.427384 -0.0149096 2.085e-21)
        porous   : (0 0 0)
    sum of moments:
        pressure : (-0.881494 0.0513133 5.1795)
        viscous  : (0.00074548 0.0213692 -0.0373704)
        porous   : (0 0 0)

Time = 41

smoothSolver:  Solving for Ux, Initial residual = 0.00318508, Final residual = 1.27618e-05, No Iterations 8
smoothSolver:  Solving for Uy, Initial residual = 0.00154938, Final residual = 7.35225e-06, No Iterations 8
GAMG:  Solving for p, Initial residual = 0.00402281, Final residual = 3.24121e-05, No Iterations 4
time step continuity errors : sum local = 1.02636e-05, global = -1.03835e-17, cumulative = 6.86461e-16
smoothSolver:  Solving for nuTilda, Initial residual = 0.00387799, Final residual = 1.86942e-05, No Iterations 8
bounding nuTilda, min: -0.000146753 max: 0.404467 average: 0.0753252
ExecutionTime = 4.01 s  ClockTime = 4 s

Time = 42

smoothSolver:  Solving for Ux, Initial residual = 0.00314954, Final residual = 1.26749e-05, No Iterations 8
smoothSolver:  Solving for Uy, Initial residual = 0.00146695, Final residual = 7.02271e-06, No Iterations 8
GAMG:  Solving for p, Initial residual = 0.00387163, Final residual = 3.18813e-05, No Iterations 4
time step continuity errors : sum local = 1.01563e-05, global = -2.26862e-16, cumulative = 4.59599e-16
smoothSolver:  Solving for nuTilda, Initial residual = 0.00374989, Final residual = 1.80635e-05, No Iterations 8
bounding nuTilda, min: -7.36863e-05 max: 0.404466 average: 0.074652
ExecutionTime = 4.1 s  ClockTime = 4 s

Time = 43

smoothSolver:  Solving for Ux, Initial residual = 0.00312809, Final residual = 1.26679e-05, No Iterations 8
smoothSolver:  Solving for Uy, Initial residual = 0.00138643, Final residual = 6.75702e-06, No Iterations 8
GAMG:  Solving for p, Initial residual = 0.00359926, Final residual = 2.82372e-05, No Iterations 4
time step continuity errors : sum local = 9.00461e-06, global = -3.36105e-16, cumulative = 1.23494e-16
smoothSolver:  Solving for nuTilda, Initial residual = 0.00362995, Final residual = 1.74874e-05, No Iterations 8
ExecutionTime = 4.18 s  ClockTime = 4 s

Time = 44

smoothSolver:  Solving for Ux, Initial residual = 0.00307987, Final residual = 1.2543e-05, No Iterations 8
smoothSolver:  Solving for Uy, Initial residual = 0.00134756, Final residual = 6.68112e-06, No Iterations 8
GAMG:  Solving for p, Initial residual = 0.003382, Final residual = 2.08639e-05, No Iterations 4
time step continuity errors : sum local = 6.614e-06, global = -2.48097e-16, cumulative = -1.24603e-16
smoothSolver:  Solving for nuTilda, Initial residual = 0.00351482, Final residual = 1.69221e-05, No Iterations 8
bounding nuTilda, min: -0.000181486 max: 0.404468 average: 0.0733487
ExecutionTime = 4.27 s  ClockTime = 4 s

Time = 45

smoothSolver:  Solving for Ux, Initial residual = 0.0030068, Final residual = 1.23063e-05, No Iterations 8
smoothSolver:  Solving for Uy, Initial residual = 0.00132575, Final residual = 6.65696e-06, No Iterations 8
GAMG:  Solving for p, Initial residual = 0.00322988, Final residual = 2.4506e-05, No Iterations 4
time step continuity errors : sum local = 7.77372e-06, global = 7.57185e-17, cumulative = -4.88847e-17
smoothSolver:  Solving for nuTilda, Initial residual = 0.0034075, Final residual = 1.64001e-05, No Iterations 8
ExecutionTime = 4.36 s  ClockTime = 4 s

forces wings output:
    sum of forces:
        pressure : (0.951233 17.5099 -2.07612e-20)
        viscous  : (0.414818 -0.0144719 2.01024e-21)
        porous   : (0 0 0)
    sum of moments:
        pressure : (-0.875493 0.0475617 5.01675)
        viscous  : (0.000723596 0.0207409 -0.0362916)
        porous   : (0 0 0)

Time = 46

smoothSolver:  Solving for Ux, Initial residual = 0.0029315, Final residual = 1.20465e-05, No Iterations 8
smoothSolver:  Solving for Uy, Initial residual = 0.00133216, Final residual = 6.71641e-06, No Iterations 8
GAMG:  Solving for p, Initial residual = 0.00306498, Final residual = 2.48688e-05, No Iterations 4
time step continuity errors : sum local = 7.90392e-06, global = -1.10724e-16, cumulative = -1.59609e-16
smoothSolver:  Solving for nuTilda, Initial residual = 0.00330384, Final residual = 1.58922e-05, No Iterations 8
bounding nuTilda, min: -9.98486e-05 max: 0.40447 average: 0.0720963
ExecutionTime = 4.45 s  ClockTime = 4 s

Time = 47

smoothSolver:  Solving for Ux, Initial residual = 0.00287686, Final residual = 1.1859e-05, No Iterations 8
smoothSolver:  Solving for Uy, Initial residual = 0.00131994, Final residual = 6.67277e-06, No Iterations 8
GAMG:  Solving for p, Initial residual = 0.00297552, Final residual = 2.82588e-05, No Iterations 4
time step continuity errors : sum local = 8.943e-06, global = 2.6606e-17, cumulative = -1.33003e-16
smoothSolver:  Solving for nuTilda, Initial residual = 0.0032061, Final residual = 1.54104e-05, No Iterations 8
ExecutionTime = 4.54 s  ClockTime = 5 s

Time = 48

smoothSolver:  Solving for Ux, Initial residual = 0.00284073, Final residual = 1.17442e-05, No Iterations 8
smoothSolver:  Solving for Uy, Initial residual = 0.00130759, Final residual = 6.62381e-06, No Iterations 8
GAMG:  Solving for p, Initial residual = 0.00287522, Final residual = 2.46798e-05, No Iterations 4
time step continuity errors : sum local = 7.81483e-06, global = -2.5438e-16, cumulative = -3.87383e-16
smoothSolver:  Solving for nuTilda, Initial residual = 0.00311197, Final residual = 1.49448e-05, No Iterations 8
bounding nuTilda, min: -0.000109788 max: 0.404471 average: 0.0708917
ExecutionTime = 4.63 s  ClockTime = 5 s

Time = 49

smoothSolver:  Solving for Ux, Initial residual = 0.00281179, Final residual = 1.16518e-05, No Iterations 8
smoothSolver:  Solving for Uy, Initial residual = 0.00130369, Final residual = 6.61597e-06, No Iterations 8
GAMG:  Solving for p, Initial residual = 0.00278439, Final residual = 2.20114e-05, No Iterations 4
time step continuity errors : sum local = 6.96345e-06, global = 6.18593e-17, cumulative = -3.25524e-16
smoothSolver:  Solving for nuTilda, Initial residual = 0.0030223, Final residual = 1.45015e-05, No Iterations 8
ExecutionTime = 4.72 s  ClockTime = 5 s

Time = 50

smoothSolver:  Solving for Ux, Initial residual = 0.00277658, Final residual = 1.15272e-05, No Iterations 8
smoothSolver:  Solving for Uy, Initial residual = 0.00129489, Final residual = 6.60341e-06, No Iterations 8
GAMG:  Solving for p, Initial residual = 0.00268274, Final residual = 2.1613e-05, No Iterations 4
time step continuity errors : sum local = 6.84611e-06, global = 2.88056e-17, cumulative = -2.96718e-16
smoothSolver:  Solving for nuTilda, Initial residual = 0.00293661, Final residual = 1.40749e-05, No Iterations 8
bounding nuTilda, min: -0.000116589 max: 0.404478 average: 0.0697319
ExecutionTime = 4.8 s  ClockTime = 5 s

forces wings output:
    sum of forces:
        pressure : (0.985354 17.7793 -1.54242e-20)
        viscous  : (0.403334 -0.0140823 1.90976e-21)
        porous   : (0 0 0)
    sum of moments:
        pressure : (-0.888963 0.0492677 5.13044)
        viscous  : (0.000704116 0.0201667 -0.0352957)
        porous   : (0 0 0)

Time = 51

smoothSolver:  Solving for Ux, Initial residual = 0.00273368, Final residual = 1.13703e-05, No Iterations 8
smoothSolver:  Solving for Uy, Initial residual = 0.00129077, Final residual = 6.61593e-06, No Iterations 8
GAMG:  Solving for p, Initial residual = 0.00258288, Final residual = 2.05142e-05, No Iterations 4
time step continuity errors : sum local = 6.48555e-06, global = -1.8785e-16, cumulative = -4.84569e-16
smoothSolver:  Solving for nuTilda, Initial residual = 0.00285472, Final residual = 1.3667e-05, No Iterations 8
ExecutionTime = 4.89 s  ClockTime = 5 s

Time = 52

smoothSolver:  Solving for Ux, Initial residual = 0.00268988, Final residual = 1.12121e-05, No Iterations 8
smoothSolver:  Solving for Uy, Initial residual = 0.00128331, Final residual = 6.60972e-06, No Iterations 8
GAMG:  Solving for p, Initial residual = 0.00250153, Final residual = 1.9638e-05, No Iterations 4
time step continuity errors : sum local = 6.23295e-06, global = -1.13287e-17, cumulative = -4.95897e-16
smoothSolver:  Solving for nuTilda, Initial residual = 0.00277631, Final residual = 1.32765e-05, No Iterations 8
bounding nuTilda, min: -0.000121665 max: 0.404491 average: 0.0686144
ExecutionTime = 4.99 s  ClockTime = 5 s

Time = 53

smoothSolver:  Solving for Ux, Initial residual = 0.0026496, Final residual = 1.10707e-05, No Iterations 8
smoothSolver:  Solving for Uy, Initial residual = 0.00126909, Final residual = 6.571e-06, No Iterations 8
GAMG:  Solving for p, Initial residual = 0.00242795, Final residual = 2.00422e-05, No Iterations 4
time step continuity errors : sum local = 6.35871e-06, global = -5.32433e-17, cumulative = -5.49141e-16
smoothSolver:  Solving for nuTilda, Initial residual = 0.00270013, Final residual = 1.29031e-05, No Iterations 8
ExecutionTime = 5.07 s  ClockTime = 5 s

Time = 54

smoothSolver:  Solving for Ux, Initial residual = 0.00261253, Final residual = 1.09385e-05, No Iterations 8
smoothSolver:  Solving for Uy, Initial residual = 0.0012628, Final residual = 6.55977e-06, No Iterations 8
GAMG:  Solving for p, Initial residual = 0.00235808, Final residual = 1.98153e-05, No Iterations 4
time step continuity errors : sum local = 6.28237e-06, global = 2.02766e-16, cumulative = -3.46375e-16
smoothSolver:  Solving for nuTilda, Initial residual = 0.00262683, Final residual = 1.25448e-05, No Iterations 8
bounding nuTilda, min: -0.00012559 max: 0.404504 average: 0.0675368
ExecutionTime = 5.15 s  ClockTime = 5 s

Time = 55

smoothSolver:  Solving for Ux, Initial residual = 0.00257672, Final residual = 1.08072e-05, No Iterations 8
smoothSolver:  Solving for Uy, Initial residual = 0.00125992, Final residual = 6.55924e-06, No Iterations 8
GAMG:  Solving for p, Initial residual = 0.0022932, Final residual = 1.97505e-05, No Iterations 4
time step continuity errors : sum local = 6.25892e-06, global = 2.09428e-16, cumulative = -1.36947e-16
smoothSolver:  Solving for nuTilda, Initial residual = 0.00255627, Final residual = 1.21982e-05, No Iterations 8
ExecutionTime = 5.24 s  ClockTime = 5 s

forces wings output:
    sum of forces:
        pressure : (0.970526 18.134 -1.18056e-20)
        viscous  : (0.392191 -0.0136592 1.83557e-21)
        porous   : (0 0 0)
    sum of moments:
        pressure : (-0.906701 0.0485263 5.16819)
        viscous  : (0.000682959 0.0196096 -0.0343142)
        porous   : (0 0 0)

Time = 56

smoothSolver:  Solving for Ux, Initial residual = 0.00254197, Final residual = 1.06734e-05, No Iterations 8
smoothSolver:  Solving for Uy, Initial residual = 0.00125765, Final residual = 6.55533e-06, No Iterations 8
GAMG:  Solving for p, Initial residual = 0.00223669, Final residual = 1.97628e-05, No Iterations 4
time step continuity errors : sum local = 6.26259e-06, global = -2.37869e-16, cumulative = -3.74815e-16
smoothSolver:  Solving for nuTilda, Initial residual = 0.00248883, Final residual = 1.18644e-05, No Iterations 8
bounding nuTilda, min: -0.000127802 max: 0.404515 average: 0.0664969
ExecutionTime = 5.33 s  ClockTime = 5 s

Time = 57

smoothSolver:  Solving for Ux, Initial residual = 0.00250929, Final residual = 1.05445e-05, No Iterations 8
smoothSolver:  Solving for Uy, Initial residual = 0.00125617, Final residual = 6.55015e-06, No Iterations 8
GAMG:  Solving for p, Initial residual = 0.00216933, Final residual = 2.00012e-05, No Iterations 4
time step continuity errors : sum local = 6.33964e-06, global = 2.85604e-17, cumulative = -3.46255e-16
smoothSolver:  Solving for nuTilda, Initial residual = 0.00242389, Final residual = 1.15422e-05, No Iterations 8
ExecutionTime = 5.41 s  ClockTime = 5 s

Time = 58

smoothSolver:  Solving for Ux, Initial residual = 0.00247923, Final residual = 1.04238e-05, No Iterations 8
smoothSolver:  Solving for Uy, Initial residual = 0.00125213, Final residual = 6.53329e-06, No Iterations 8
GAMG:  Solving for p, Initial residual = 0.00211213, Final residual = 1.92014e-05, No Iterations 4
time step continuity errors : sum local = 6.06763e-06, global = 1.45411e-16, cumulative = -2.00844e-16
smoothSolver:  Solving for nuTilda, Initial residual = 0.00236112, Final residual = 1.12316e-05, No Iterations 8
bounding nuTilda, min: -0.000128793 max: 0.404526 average: 0.0654927
ExecutionTime = 5.5 s  ClockTime = 5 s

Time = 59

smoothSolver:  Solving for Ux, Initial residual = 0.00245069, Final residual = 1.03118e-05, No Iterations 8
smoothSolver:  Solving for Uy, Initial residual = 0.00124461, Final residual = 6.50588e-06, No Iterations 8
GAMG:  Solving for p, Initial residual = 0.00205054, Final residual = 1.80811e-05, No Iterations 4
time step continuity errors : sum local = 5.72449e-06, global = 1.5663e-16, cumulative = -4.42142e-17
smoothSolver:  Solving for nuTilda, Initial residual = 0.00230063, Final residual = 1.09325e-05, No Iterations 8
ExecutionTime = 5.59 s  ClockTime = 6 s

Time = 60

smoothSolver:  Solving for Ux, Initial residual = 0.0024218, Final residual = 1.0199e-05, No Iterations 8
smoothSolver:  Solving for Uy, Initial residual = 0.001239, Final residual = 6.48991e-06, No Iterations 8
GAMG:  Solving for p, Initial residual = 0.00199371, Final residual = 1.73177e-05, No Iterations 4
time step continuity errors : sum local = 5.48149e-06, global = 2.8903e-17, cumulative = -1.53112e-17
smoothSolver:  Solving for nuTilda, Initial residual = 0.00224268, Final residual = 1.06442e-05, No Iterations 8
bounding nuTilda, min: -0.000129222 max: 0.404535 average: 0.0645225
ExecutionTime = 5.68 s  ClockTime = 6 s

forces wings output:
    sum of forces:
        pressure : (0.959244 18.4225 -1.03437e-20)
        viscous  : (0.381569 -0.0132421 1.75207e-21)
        porous   : (0 0 0)
    sum of moments:
        pressure : (-0.921125 0.0479622 5.20034)
        viscous  : (0.000662104 0.0190785 -0.0333752)
        porous   : (0 0 0)

Time = 61

smoothSolver:  Solving for Ux, Initial residual = 0.00239197, Final residual = 1.0081e-05, No Iterations 8
smoothSolver:  Solving for Uy, Initial residual = 0.00123656, Final residual = 6.48871e-06, No Iterations 8
GAMG:  Solving for p, Initial residual = 0.00193712, Final residual = 1.72252e-05, No Iterations 4
time step continuity errors : sum local = 5.45439e-06, global = -9.90772e-17, cumulative = -1.14388e-16
smoothSolver:  Solving for nuTilda, Initial residual = 0.00218741, Final residual = 1.0366e-05, No Iterations 8
ExecutionTime = 5.77 s  ClockTime = 6 s

Time = 62

smoothSolver:  Solving for Ux, Initial residual = 0.00236282, Final residual = 9.96188e-06, No Iterations 8
smoothSolver:  Solving for Uy, Initial residual = 0.00123537, Final residual = 6.49105e-06, No Iterations 8
GAMG:  Solving for p, Initial residual = 0.00188798, Final residual = 1.79416e-05, No Iterations 4
time step continuity errors : sum local = 5.68281e-06, global = -2.99799e-17, cumulative = -1.44368e-16
smoothSolver:  Solving for nuTilda, Initial residual = 0.00213377, Final residual = 1.00969e-05, No Iterations 8
bounding nuTilda, min: -0.000128972 max: 0.404545 average: 0.0635844
ExecutionTime = 5.85 s  ClockTime = 6 s

Time = 63

smoothSolver:  Solving for Ux, Initial residual = 0.0023357, Final residual = 9.84934e-06, No Iterations 8
smoothSolver:  Solving for Uy, Initial residual = 0.00123404, Final residual = 6.48906e-06, No Iterations 8
GAMG:  Solving for p, Initial residual = 0.00183918, Final residual = 1.18137e-05, No Iterations 5
time step continuity errors : sum local = 3.75274e-06, global = 1.48022e-18, cumulative = -1.42888e-16
smoothSolver:  Solving for nuTilda, Initial residual = 0.00208175, Final residual = 9.83685e-06, No Iterations 8
ExecutionTime = 5.94 s  ClockTime = 6 s

Time = 64

smoothSolver:  Solving for Ux, Initial residual = 0.00231214, Final residual = 9.75278e-06, No Iterations 8
smoothSolver:  Solving for Uy, Initial residual = 0.00123094, Final residual = 6.4764e-06, No Iterations 8
GAMG:  Solving for p, Initial residual = 0.00179699, Final residual = 1.48821e-05, No Iterations 4
time step continuity errors : sum local = 4.71241e-06, global = -4.7071e-17, cumulative = -1.89959e-16
smoothSolver:  Solving for nuTilda, Initial residual = 0.0020313, Final residual = 9.58539e-06, No Iterations 8
bounding nuTilda, min: -0.000128199 max: 0.404554 average: 0.0626769
ExecutionTime = 6.03 s  ClockTime = 6 s

Time = 65

smoothSolver:  Solving for Ux, Initial residual = 0.00228869, Final residual = 9.65509e-06, No Iterations 8
smoothSolver:  Solving for Uy, Initial residual = 0.00122672, Final residual = 6.45748e-06, No Iterations 8
GAMG:  Solving for p, Initial residual = 0.00175484, Final residual = 1.46793e-05, No Iterations 4
time step continuity errors : sum local = 4.65583e-06, global = -3.25329e-16, cumulative = -5.15288e-16
smoothSolver:  Solving for nuTilda, Initial residual = 0.00198247, Final residual = 9.34232e-06, No Iterations 8
ExecutionTime = 6.12 s  ClockTime = 6 s

forces wings output:
    sum of forces:
        pressure : (0.96459 18.7006 -8.6864e-21)
        viscous  : (0.371483 -0.0128189 1.69346e-21)
        porous   : (0 0 0)
    sum of moments:
        pressure : (-0.935032 0.0482295 5.26174)
        viscous  : (0.000640947 0.0185742 -0.0324781)
        porous   : (0 0 0)

Time = 66

smoothSolver:  Solving for Ux, Initial residual = 0.00226484, Final residual = 9.55579e-06, No Iterations 8
smoothSolver:  Solving for Uy, Initial residual = 0.00122258, Final residual = 6.4386e-06, No Iterations 8
GAMG:  Solving for p, Initial residual = 0.00171702, Final residual = 1.50123e-05, No Iterations 4
time step continuity errors : sum local = 4.76516e-06, global = 3.55482e-17, cumulative = -4.7974e-16
smoothSolver:  Solving for nuTilda, Initial residual = 0.00193487, Final residual = 9.10757e-06, No Iterations 8
bounding nuTilda, min: -0.000127199 max: 0.404562 average: 0.0617986
ExecutionTime = 6.21 s  ClockTime = 6 s

Time = 67

smoothSolver:  Solving for Ux, Initial residual = 0.00224034, Final residual = 9.45312e-06, No Iterations 8
smoothSolver:  Solving for Uy, Initial residual = 0.00122028, Final residual = 6.42696e-06, No Iterations 8
GAMG:  Solving for p, Initial residual = 0.00168465, Final residual = 5.99758e-06, No Iterations 5
time step continuity errors : sum local = 1.90422e-06, global = -7.10446e-17, cumulative = -5.50784e-16
smoothSolver:  Solving for nuTilda, Initial residual = 0.00188878, Final residual = 8.88107e-06, No Iterations 8
bounding nuTilda, min: -0.000151914 max: 0.404566 average: 0.0613699
ExecutionTime = 6.3 s  ClockTime = 6 s

Time = 68

smoothSolver:  Solving for Ux, Initial residual = 0.0022163, Final residual = 9.35289e-06, No Iterations 8
smoothSolver:  Solving for Uy, Initial residual = 0.00121926, Final residual = 6.41991e-06, No Iterations 8
GAMG:  Solving for p, Initial residual = 0.00165106, Final residual = 1.59775e-05, No Iterations 4
time step continuity errors : sum local = 5.065e-06, global = -1.3174e-16, cumulative = -6.82525e-16
smoothSolver:  Solving for nuTilda, Initial residual = 0.00184421, Final residual = 8.66216e-06, No Iterations 8
bounding nuTilda, min: -0.000126172 max: 0.404569 average: 0.060948
ExecutionTime = 6.38 s  ClockTime = 6 s

Time = 69

smoothSolver:  Solving for Ux, Initial residual = 0.002193, Final residual = 9.25099e-06, No Iterations 8
smoothSolver:  Solving for Uy, Initial residual = 0.00121952, Final residual = 6.41612e-06, No Iterations 8
GAMG:  Solving for p, Initial residual = 0.00161046, Final residual = 1.56771e-05, No Iterations 4
time step continuity errors : sum local = 4.97255e-06, global = -1.47644e-17, cumulative = -6.97289e-16
smoothSolver:  Solving for nuTilda, Initial residual = 0.00180117, Final residual = 8.45044e-06, No Iterations 8
ExecutionTime = 6.47 s  ClockTime = 6 s

Time = 70

smoothSolver:  Solving for Ux, Initial residual = 0.00217203, Final residual = 9.15829e-06, No Iterations 8
smoothSolver:  Solving for Uy, Initial residual = 0.00121828, Final residual = 6.40572e-06, No Iterations 8
GAMG:  Solving for p, Initial residual = 0.00158069, Final residual = 6.18553e-06, No Iterations 5
time step continuity errors : sum local = 1.96396e-06, global = 9.5147e-17, cumulative = -6.02142e-16
smoothSolver:  Solving for nuTilda, Initial residual = 0.00175955, Final residual = 8.24496e-06, No Iterations 8
bounding nuTilda, min: -0.000125002 max: 0.404577 average: 0.0601239
ExecutionTime = 6.56 s  ClockTime = 7 s

forces wings output:
    sum of forces:
        pressure : (0.96403 19.0118 -7.50902e-21)
        viscous  : (0.361887 -0.0123931 1.64432e-21)
        porous   : (0 0 0)
    sum of moments:
        pressure : (-0.950589 0.0482015 5.31816)
        viscous  : (0.000619656 0.0180944 -0.0316211)
        porous   : (0 0 0)

Time = 71

smoothSolver:  Solving for Ux, Initial residual = 0.00215324, Final residual = 9.07684e-06, No Iterations 8
smoothSolver:  Solving for Uy, Initial residual = 0.00121478, Final residual = 6.38512e-06, No Iterations 8
GAMG:  Solving for p, Initial residual = 0.00155196, Final residual = 6.77974e-06, No Iterations 5
time step continuity errors : sum local = 2.1487e-06, global = 1.01932e-17, cumulative = -5.91949e-16
smoothSolver:  Solving for nuTilda, Initial residual = 0.00171893, Final residual = 8.04625e-06, No Iterations 8
ExecutionTime = 6.65 s  ClockTime = 7 s

Time = 72

smoothSolver:  Solving for Ux, Initial residual = 0.00213401, Final residual = 8.99103e-06, No Iterations 8
smoothSolver:  Solving for Uy, Initial residual = 0.00121218, Final residual = 6.36718e-06, No Iterations 8
GAMG:  Solving for p, Initial residual = 0.00152378, Final residual = 1.50199e-05, No Iterations 4
time step continuity errors : sum local = 4.77037e-06, global = -1.74935e-16, cumulative = -7.66884e-16
smoothSolver:  Solving for nuTilda, Initial residual = 0.00167976, Final residual = 7.85352e-06, No Iterations 8
bounding nuTilda, min: -0.000124051 max: 0.404584 average: 0.059325
ExecutionTime = 6.74 s  ClockTime = 7 s

Time = 73

smoothSolver:  Solving for Ux, Initial residual = 0.00211356, Final residual = 8.89896e-06, No Iterations 8
smoothSolver:  Solving for Uy, Initial residual = 0.00121075, Final residual = 6.35414e-06, No Iterations 8
GAMG:  Solving for p, Initial residual = 0.0014986, Final residual = 6.98565e-06, No Iterations 5
time step continuity errors : sum local = 2.2144e-06, global = -5.95898e-16, cumulative = -1.36278e-15
smoothSolver:  Solving for nuTilda, Initial residual = 0.00164204, Final residual = 7.66703e-06, No Iterations 8
bounding nuTilda, min: -8.30336e-05 max: 0.404588 average: 0.0589346
ExecutionTime = 6.84 s  ClockTime = 7 s

Time = 74

smoothSolver:  Solving for Ux, Initial residual = 0.00209444, Final residual = 8.81472e-06, No Iterations 8
smoothSolver:  Solving for Uy, Initial residual = 0.00120869, Final residual = 6.33908e-06, No Iterations 8
GAMG:  Solving for p, Initial residual = 0.00147529, Final residual = 7.45092e-06, No Iterations 5
time step continuity errors : sum local = 2.36299e-06, global = -1.37086e-17, cumulative = -1.37649e-15
smoothSolver:  Solving for nuTilda, Initial residual = 0.00160542, Final residual = 7.48573e-06, No Iterations 8
bounding nuTilda, min: -0.000123405 max: 0.404591 average: 0.0585501
ExecutionTime = 6.93 s  ClockTime = 7 s

Time = 75

smoothSolver:  Solving for Ux, Initial residual = 0.00207622, Final residual = 8.73308e-06, No Iterations 8
smoothSolver:  Solving for Uy, Initial residual = 0.00120717, Final residual = 6.32499e-06, No Iterations 8
GAMG:  Solving for p, Initial residual = 0.00145478, Final residual = 7.74783e-06, No Iterations 5
time step continuity errors : sum local = 2.46011e-06, global = 2.83104e-16, cumulative = -1.09339e-15
smoothSolver:  Solving for nuTilda, Initial residual = 0.00156983, Final residual = 7.31015e-06, No Iterations 8
ExecutionTime = 7.02 s  ClockTime = 7 s

forces wings output:
    sum of forces:
        pressure : (0.960422 19.3414 -7.29267e-21)
        viscous  : (0.352802 -0.0119578 1.62471e-21)
        porous   : (0 0 0)
    sum of moments:
        pressure : (-0.967072 0.0480211 5.3723)
        viscous  : (0.000597889 0.0176401 -0.0308047)
        porous   : (0 0 0)

Time = 76

smoothSolver:  Solving for Ux, Initial residual = 0.00205883, Final residual = 8.65439e-06, No Iterations 8
smoothSolver:  Solving for Uy, Initial residual = 0.00120547, Final residual = 6.30923e-06, No Iterations 8
GAMG:  Solving for p, Initial residual = 0.00143015, Final residual = 8.29165e-06, No Iterations 5
time step continuity errors : sum local = 2.63518e-06, global = -2.42123e-17, cumulative = -1.1176e-15
smoothSolver:  Solving for nuTilda, Initial residual = 0.00153525, Final residual = 7.14023e-06, No Iterations 8
bounding nuTilda, min: -0.000123006 max: 0.404598 average: 0.0577983
ExecutionTime = 7.11 s  ClockTime = 7 s

Time = 77

smoothSolver:  Solving for Ux, Initial residual = 0.00204223, Final residual = 8.57831e-06, No Iterations 8
smoothSolver:  Solving for Uy, Initial residual = 0.00120344, Final residual = 6.2916e-06, No Iterations 8
GAMG:  Solving for p, Initial residual = 0.0014118, Final residual = 8.58141e-06, No Iterations 5
time step continuity errors : sum local = 2.72957e-06, global = -1.85007e-16, cumulative = -1.30261e-15
smoothSolver:  Solving for nuTilda, Initial residual = 0.00150177, Final residual = 6.97582e-06, No Iterations 8
ExecutionTime = 7.2 s  ClockTime = 7 s

Time = 78

smoothSolver:  Solving for Ux, Initial residual = 0.00202639, Final residual = 8.50457e-06, No Iterations 8
smoothSolver:  Solving for Uy, Initial residual = 0.00120098, Final residual = 6.27169e-06, No Iterations 8
GAMG:  Solving for p, Initial residual = 0.00139202, Final residual = 8.59142e-06, No Iterations 5
time step continuity errors : sum local = 2.7357e-06, global = 4.58801e-17, cumulative = -1.25672e-15
smoothSolver:  Solving for nuTilda, Initial residual = 0.00146933, Final residual = 6.81653e-06, No Iterations 8
bounding nuTilda, min: -0.000122995 max: 0.404605 average: 0.0570685
ExecutionTime = 7.29 s  ClockTime = 7 s

Time = 79

smoothSolver:  Solving for Ux, Initial residual = 0.00201065, Final residual = 8.43247e-06, No Iterations 8
smoothSolver:  Solving for Uy, Initial residual = 0.00119834, Final residual = 6.25071e-06, No Iterations 8
GAMG:  Solving for p, Initial residual = 0.00137729, Final residual = 8.79009e-06, No Iterations 5
time step continuity errors : sum local = 2.79903e-06, global = -1.88259e-16, cumulative = -1.44498e-15
smoothSolver:  Solving for nuTilda, Initial residual = 0.0014379, Final residual = 6.6617e-06, No Iterations 8
bounding nuTilda, min: -7.67023e-05 max: 0.404609 average: 0.0567115
ExecutionTime = 7.37 s  ClockTime = 7 s

Time = 80

smoothSolver:  Solving for Ux, Initial residual = 0.00199508, Final residual = 8.36071e-06, No Iterations 8
smoothSolver:  Solving for Uy, Initial residual = 0.00119582, Final residual = 6.22984e-06, No Iterations 8
GAMG:  Solving for p, Initial residual = 0.00136404, Final residual = 8.8498e-06, No Iterations 5
time step continuity errors : sum local = 2.81832e-06, global = -3.10904e-16, cumulative = -1.75589e-15
smoothSolver:  Solving for nuTilda, Initial residual = 0.00140726, Final residual = 6.5106e-06, No Iterations 8
bounding nuTilda, min: -0.000123406 max: 0.404613 average: 0.0563597
ExecutionTime = 7.46 s  ClockTime = 7 s

forces wings output:
    sum of forces:
        pressure : (0.956948 19.6876 -7.07431e-21)
        viscous  : (0.344224 -0.0115105 1.58615e-21)
        porous   : (0 0 0)
    sum of moments:
        pressure : (-0.984382 0.0478474 5.42974)
        viscous  : (0.000575526 0.0172112 -0.0300287)
        porous   : (0 0 0)

Time = 81

smoothSolver:  Solving for Ux, Initial residual = 0.00198001, Final residual = 8.29002e-06, No Iterations 8
smoothSolver:  Solving for Uy, Initial residual = 0.00119362, Final residual = 6.20937e-06, No Iterations 8
GAMG:  Solving for p, Initial residual = 0.00135007, Final residual = 8.69625e-06, No Iterations 5
time step continuity errors : sum local = 2.77063e-06, global = 1.65858e-16, cumulative = -1.59003e-15
smoothSolver:  Solving for nuTilda, Initial residual = 0.00137749, Final residual = 6.36353e-06, No Iterations 8
ExecutionTime = 7.56 s  ClockTime = 8 s

Time = 82

smoothSolver:  Solving for Ux, Initial residual = 0.00196542, Final residual = 8.22177e-06, No Iterations 8
smoothSolver:  Solving for Uy, Initial residual = 0.00119121, Final residual = 6.18792e-06, No Iterations 8
GAMG:  Solving for p, Initial residual = 0.00133627, Final residual = 8.88088e-06, No Iterations 5
time step continuity errors : sum local = 2.82914e-06, global = -1.6165e-17, cumulative = -1.60619e-15
smoothSolver:  Solving for nuTilda, Initial residual = 0.00134869, Final residual = 6.22084e-06, No Iterations 8
bounding nuTilda, min: -0.000124201 max: 0.40462 average: 0.0556711
ExecutionTime = 7.65 s  ClockTime = 8 s

Time = 83

smoothSolver:  Solving for Ux, Initial residual = 0.00195131, Final residual = 8.1559e-06, No Iterations 8
smoothSolver:  Solving for Uy, Initial residual = 0.00118868, Final residual = 6.16538e-06, No Iterations 8
GAMG:  Solving for p, Initial residual = 0.00132738, Final residual = 9.00294e-06, No Iterations 5
time step continuity errors : sum local = 2.86853e-06, global = -1.50273e-16, cumulative = -1.75647e-15
smoothSolver:  Solving for nuTilda, Initial residual = 0.00132063, Final residual = 6.08244e-06, No Iterations 8
ExecutionTime = 7.74 s  ClockTime = 8 s

Time = 84

smoothSolver:  Solving for Ux, Initial residual = 0.00193782, Final residual = 8.09211e-06, No Iterations 8
smoothSolver:  Solving for Uy, Initial residual = 0.00118571, Final residual = 6.14082e-06, No Iterations 8
GAMG:  Solving for p, Initial residual = 0.00131272, Final residual = 8.93721e-06, No Iterations 5
time step continuity errors : sum local = 2.84971e-06, global = 1.31987e-16, cumulative = -1.62448e-15
smoothSolver:  Solving for nuTilda, Initial residual = 0.00129326, Final residual = 5.94789e-06, No Iterations 8
bounding nuTilda, min: -0.000125437 max: 0.404628 average: 0.055002
ExecutionTime = 7.83 s  ClockTime = 8 s

Time = 85

smoothSolver:  Solving for Ux, Initial residual = 0.00192455, Final residual = 8.03016e-06, No Iterations 8
smoothSolver:  Solving for Uy, Initial residual = 0.00118248, Final residual = 6.11449e-06, No Iterations 8
GAMG:  Solving for p, Initial residual = 0.00130544, Final residual = 9.09778e-06, No Iterations 5
time step continuity errors : sum local = 2.90106e-06, global = -3.70351e-17, cumulative = -1.66152e-15
smoothSolver:  Solving for nuTilda, Initial residual = 0.00126664, Final residual = 5.81689e-06, No Iterations 8
bounding nuTilda, min: -0.00010901 max: 0.404631 average: 0.0546745
ExecutionTime = 7.92 s  ClockTime = 8 s

forces wings output:
    sum of forces:
        pressure : (0.951722 20.0477 -6.91899e-21)
        viscous  : (0.336219 -0.0110548 1.54748e-21)
        porous   : (0 0 0)
    sum of moments:
        pressure : (-1.00238 0.0475861 5.48646)
        viscous  : (0.000552738 0.016811 -0.029299)
        porous   : (0 0 0)

Time = 86

smoothSolver:  Solving for Ux, Initial residual = 0.00191132, Final residual = 7.96884e-06, No Iterations 8
smoothSolver:  Solving for Uy, Initial residual = 0.00117906, Final residual = 6.08744e-06, No Iterations 8
GAMG:  Solving for p, Initial residual = 0.00129777, Final residual = 9.16341e-06, No Iterations 5
time step continuity errors : sum local = 2.92265e-06, global = 8.03767e-17, cumulative = -1.58114e-15
smoothSolver:  Solving for nuTilda, Initial residual = 0.00124073, Final residual = 5.68864e-06, No Iterations 8
bounding nuTilda, min: -0.000127076 max: 0.404635 average: 0.0543516
ExecutionTime = 8.02 s  ClockTime = 8 s

Time = 87

smoothSolver:  Solving for Ux, Initial residual = 0.0018985, Final residual = 7.90826e-06, No Iterations 8
smoothSolver:  Solving for Uy, Initial residual = 0.0011758, Final residual = 6.06034e-06, No Iterations 8
GAMG:  Solving for p, Initial residual = 0.00128776, Final residual = 9.03356e-06, No Iterations 5
time step continuity errors : sum local = 2.88296e-06, global = -3.02881e-18, cumulative = -1.58417e-15
smoothSolver:  Solving for nuTilda, Initial residual = 0.00121539, Final residual = 5.56444e-06, No Iterations 8
ExecutionTime = 8.11 s  ClockTime = 8 s

Time = 88

smoothSolver:  Solving for Ux, Initial residual = 0.00188602, Final residual = 7.84919e-06, No Iterations 8
smoothSolver:  Solving for Uy, Initial residual = 0.00117228, Final residual = 6.03231e-06, No Iterations 8
GAMG:  Solving for p, Initial residual = 0.00127886, Final residual = 9.10211e-06, No Iterations 5
time step continuity errors : sum local = 2.90461e-06, global = 5.61196e-17, cumulative = -1.52805e-15
smoothSolver:  Solving for nuTilda, Initial residual = 0.00119069, Final residual = 5.44399e-06, No Iterations 8
bounding nuTilda, min: -0.000138214 max: 0.404643 average: 0.0537191
ExecutionTime = 8.2 s  ClockTime = 8 s

Time = 89

smoothSolver:  Solving for Ux, Initial residual = 0.00187384, Final residual = 7.7914e-06, No Iterations 8
smoothSolver:  Solving for Uy, Initial residual = 0.00116875, Final residual = 6.00367e-06, No Iterations 8
GAMG:  Solving for p, Initial residual = 0.00127514, Final residual = 9.17603e-06, No Iterations 5
time step continuity errors : sum local = 2.92863e-06, global = -1.55147e-16, cumulative = -1.6832e-15
smoothSolver:  Solving for nuTilda, Initial residual = 0.00116666, Final residual = 5.32665e-06, No Iterations 8
ExecutionTime = 8.28 s  ClockTime = 8 s

Time = 90

smoothSolver:  Solving for Ux, Initial residual = 0.00186216, Final residual = 7.73532e-06, No Iterations 8
smoothSolver:  Solving for Uy, Initial residual = 0.00116491, Final residual = 5.97345e-06, No Iterations 8
GAMG:  Solving for p, Initial residual = 0.00126269, Final residual = 9.06083e-06, No Iterations 5
time step continuity errors : sum local = 2.89371e-06, global = -7.17565e-17, cumulative = -1.75495e-15
smoothSolver:  Solving for nuTilda, Initial residual = 0.00114334, Final residual = 5.21197e-06, No Iterations 8
bounding nuTilda, min: -0.000131314 max: 0.404651 average: 0.0531039
ExecutionTime = 8.37 s  ClockTime = 8 s

forces wings output:
    sum of forces:
        pressure : (0.943542 20.4213 -6.80186e-21)
        viscous  : (0.329171 -0.0106022 1.49768e-21)
        porous   : (0 0 0)
    sum of moments:
        pressure : (-1.02107 0.0471771 5.54015)
        viscous  : (0.00053011 0.0164585 -0.0286498)
        porous   : (0 0 0)

Time = 91

smoothSolver:  Solving for Ux, Initial residual = 0.0018507, Final residual = 7.6809e-06, No Iterations 8
smoothSolver:  Solving for Uy, Initial residual = 0.00116072, Final residual = 5.94148e-06, No Iterations 8
GAMG:  Solving for p, Initial residual = 0.00125884, Final residual = 9.14678e-06, No Iterations 5
time step continuity errors : sum local = 2.92256e-06, global = -6.29853e-17, cumulative = -1.81794e-15
smoothSolver:  Solving for nuTilda, Initial residual = 0.00112064, Final residual = 5.09995e-06, No Iterations 8
ExecutionTime = 8.46 s  ClockTime = 8 s

Time = 92

smoothSolver:  Solving for Ux, Initial residual = 0.00183935, Final residual = 7.62716e-06, No Iterations 8
smoothSolver:  Solving for Uy, Initial residual = 0.00115629, Final residual = 5.90849e-06, No Iterations 8
GAMG:  Solving for p, Initial residual = 0.00124854, Final residual = 9.13109e-06, No Iterations 5
time step continuity errors : sum local = 2.91783e-06, global = 1.52497e-16, cumulative = -1.66544e-15
smoothSolver:  Solving for nuTilda, Initial residual = 0.00109855, Final residual = 4.99093e-06, No Iterations 8
bounding nuTilda, min: -0.000133835 max: 0.404659 average: 0.0525055
ExecutionTime = 8.56 s  ClockTime = 9 s

Time = 93

smoothSolver:  Solving for Ux, Initial residual = 0.00182802, Final residual = 7.57367e-06, No Iterations 8
smoothSolver:  Solving for Uy, Initial residual = 0.00115188, Final residual = 5.87532e-06, No Iterations 8
GAMG:  Solving for p, Initial residual = 0.00124268, Final residual = 9.24492e-06, No Iterations 5
time step continuity errors : sum local = 2.95506e-06, global = -3.16912e-16, cumulative = -1.98235e-15
smoothSolver:  Solving for nuTilda, Initial residual = 0.00107713, Final residual = 4.88534e-06, No Iterations 8
ExecutionTime = 8.65 s  ClockTime = 9 s

Time = 94

smoothSolver:  Solving for Ux, Initial residual = 0.00181684, Final residual = 7.52085e-06, No Iterations 8
smoothSolver:  Solving for Uy, Initial residual = 0.00114723, Final residual = 5.84124e-06, No Iterations 8
GAMG:  Solving for p, Initial residual = 0.00123422, Final residual = 9.1237e-06, No Iterations 5
time step continuity errors : sum local = 2.91695e-06, global = -5.8192e-18, cumulative = -1.98817e-15
smoothSolver:  Solving for nuTilda, Initial residual = 0.00105628, Final residual = 4.78257e-06, No Iterations 8
bounding nuTilda, min: -0.000136612 max: 0.404667 average: 0.0519231
ExecutionTime = 8.74 s  ClockTime = 9 s

Time = 95

smoothSolver:  Solving for Ux, Initial residual = 0.00180576, Final residual = 7.46914e-06, No Iterations 8
smoothSolver:  Solving for Uy, Initial residual = 0.00114241, Final residual = 5.80609e-06, No Iterations 8
GAMG:  Solving for p, Initial residual = 0.00122873, Final residual = 9.13772e-06, No Iterations 5
time step continuity errors : sum local = 2.92289e-06, global = -2.31441e-17, cumulative = -2.01132e-15
smoothSolver:  Solving for nuTilda, Initial residual = 0.00103583, Final residual = 4.68161e-06, No Iterations 8
ExecutionTime = 8.82 s  ClockTime = 9 s

forces wings output:
    sum of forces:
        pressure : (0.932768 20.7997 -6.7876e-21)
        viscous  : (0.323131 -0.0101747 1.44915e-21)
        porous   : (0 0 0)
    sum of moments:
        pressure : (-1.03999 0.0466384 5.58987)
        viscous  : (0.000508736 0.0161565 -0.0280886)
        porous   : (0 0 0)

Time = 96

smoothSolver:  Solving for Ux, Initial residual = 0.00179484, Final residual = 7.41835e-06, No Iterations 8
smoothSolver:  Solving for Uy, Initial residual = 0.00113724, Final residual = 5.76945e-06, No Iterations 8
GAMG:  Solving for p, Initial residual = 0.00121942, Final residual = 9.01361e-06, No Iterations 5
time step continuity errors : sum local = 2.88433e-06, global = 2.24243e-16, cumulative = -1.78707e-15
smoothSolver:  Solving for nuTilda, Initial residual = 0.00101587, Final residual = 4.58302e-06, No Iterations 8
bounding nuTilda, min: -0.000139479 max: 0.404675 average: 0.0513563
ExecutionTime = 8.92 s  ClockTime = 9 s

Time = 97

smoothSolver:  Solving for Ux, Initial residual = 0.00178401, Final residual = 7.36835e-06, No Iterations 8
smoothSolver:  Solving for Uy, Initial residual = 0.00113192, Final residual = 5.73175e-06, No Iterations 8
GAMG:  Solving for p, Initial residual = 0.00121285, Final residual = 9.06698e-06, No Iterations 5
time step continuity errors : sum local = 2.90279e-06, global = -2.4711e-16, cumulative = -2.03418e-15
smoothSolver:  Solving for nuTilda, Initial residual = 0.000996441, Final residual = 4.48672e-06, No Iterations 8
ExecutionTime = 9.01 s  ClockTime = 9 s

Time = 98

smoothSolver:  Solving for Ux, Initial residual = 0.00177322, Final residual = 7.31839e-06, No Iterations 8
smoothSolver:  Solving for Uy, Initial residual = 0.00112632, Final residual = 5.69297e-06, No Iterations 8
GAMG:  Solving for p, Initial residual = 0.00120367, Final residual = 8.98746e-06, No Iterations 5
time step continuity errors : sum local = 2.8783e-06, global = 9.08317e-17, cumulative = -1.94335e-15
smoothSolver:  Solving for nuTilda, Initial residual = 0.000977472, Final residual = 4.39277e-06, No Iterations 8
bounding nuTilda, min: -0.000142387 max: 0.404684 average: 0.0508045
ExecutionTime = 9.1 s  ClockTime = 9 s

Time = 99

smoothSolver:  Solving for Ux, Initial residual = 0.00176246, Final residual = 7.26861e-06, No Iterations 8
smoothSolver:  Solving for Uy, Initial residual = 0.00112059, Final residual = 5.65345e-06, No Iterations 8
GAMG:  Solving for p, Initial residual = 0.00119641, Final residual = 9.02873e-06, No Iterations 5
time step continuity errors : sum local = 2.89272e-06, global = 8.49083e-18, cumulative = -1.93486e-15
smoothSolver:  Solving for nuTilda, Initial residual = 0.000958935, Final residual = 4.30119e-06, No Iterations 8
ExecutionTime = 9.19 s  ClockTime = 9 s

Time = 100

smoothSolver:  Solving for Ux, Initial residual = 0.00175171, Final residual = 7.21894e-06, No Iterations 8
smoothSolver:  Solving for Uy, Initial residual = 0.00111459, Final residual = 5.61302e-06, No Iterations 8
GAMG:  Solving for p, Initial residual = 0.00118617, Final residual = 8.91786e-06, No Iterations 5
time step continuity errors : sum local = 2.85836e-06, global = -1.94755e-16, cumulative = -2.12962e-15
smoothSolver:  Solving for nuTilda, Initial residual = 0.000940789, Final residual = 4.21168e-06, No Iterations 8
bounding nuTilda, min: -0.000145281 max: 0.404692 average: 0.0502673
ExecutionTime = 9.28 s  ClockTime = 9 s

forces wings output:
    sum of forces:
        pressure : (0.919001 21.1776 -6.63501e-21)
        viscous  : (0.317745 -0.00974766 1.39307e-21)
        porous   : (0 0 0)
    sum of moments:
        pressure : (-1.05888 0.0459501 5.63388)
        viscous  : (0.000487383 0.0158873 -0.0275838)
        porous   : (0 0 0)

Time = 101

smoothSolver:  Solving for Ux, Initial residual = 0.00174102, Final residual = 7.16935e-06, No Iterations 8
smoothSolver:  Solving for Uy, Initial residual = 0.00110841, Final residual = 5.57154e-06, No Iterations 8
GAMG:  Solving for p, Initial residual = 0.0011783, Final residual = 8.90925e-06, No Iterations 5
time step continuity errors : sum local = 2.85696e-06, global = -4.79197e-17, cumulative = -2.17754e-15
smoothSolver:  Solving for nuTilda, Initial residual = 0.000922985, Final residual = 4.12391e-06, No Iterations 8
ExecutionTime = 9.37 s  ClockTime = 9 s

Time = 102

smoothSolver:  Solving for Ux, Initial residual = 0.0017304, Final residual = 7.12021e-06, No Iterations 8
smoothSolver:  Solving for Uy, Initial residual = 0.00110192, Final residual = 5.52902e-06, No Iterations 8
GAMG:  Solving for p, Initial residual = 0.0011673, Final residual = 8.78405e-06, No Iterations 5
time step continuity errors : sum local = 2.81816e-06, global = -6.91409e-17, cumulative = -2.24668e-15
smoothSolver:  Solving for nuTilda, Initial residual = 0.000905629, Final residual = 4.03786e-06, No Iterations 8
bounding nuTilda, min: -0.000148091 max: 0.4047 average: 0.0497442
ExecutionTime = 9.46 s  ClockTime = 9 s

Time = 103

smoothSolver:  Solving for Ux, Initial residual = 0.00171988, Final residual = 7.07122e-06, No Iterations 8
smoothSolver:  Solving for Uy, Initial residual = 0.00109522, Final residual = 5.48535e-06, No Iterations 8
GAMG:  Solving for p, Initial residual = 0.00115952, Final residual = 8.77004e-06, No Iterations 5
time step continuity errors : sum local = 2.81494e-06, global = 1.40372e-16, cumulative = -2.1063e-15
smoothSolver:  Solving for nuTilda, Initial residual = 0.00088866, Final residual = 3.95387e-06, No Iterations 8
ExecutionTime = 9.55 s  ClockTime = 10 s

Time = 104

smoothSolver:  Solving for Ux, Initial residual = 0.00170942, Final residual = 7.02225e-06, No Iterations 8
smoothSolver:  Solving for Uy, Initial residual = 0.00108827, Final residual = 5.44074e-06, No Iterations 8
GAMG:  Solving for p, Initial residual = 0.00114791, Final residual = 8.66109e-06, No Iterations 5
time step continuity errors : sum local = 2.7813e-06, global = 3.07102e-16, cumulative = -1.7992e-15
smoothSolver:  Solving for nuTilda, Initial residual = 0.00087204, Final residual = 3.87198e-06, No Iterations 8
bounding nuTilda, min: -0.000150747 max: 0.404708 average: 0.0492349
ExecutionTime = 9.64 s  ClockTime = 10 s

Time = 105

smoothSolver:  Solving for Ux, Initial residual = 0.00169894, Final residual = 6.97316e-06, No Iterations 8
smoothSolver:  Solving for Uy, Initial residual = 0.00108116, Final residual = 5.39547e-06, No Iterations 8
GAMG:  Solving for p, Initial residual = 0.00113946, Final residual = 8.64093e-06, No Iterations 5
time step continuity errors : sum local = 2.77606e-06, global = 9.07635e-17, cumulative = -1.70844e-15
smoothSolver:  Solving for nuTilda, Initial residual = 0.000855766, Final residual = 3.79231e-06, No Iterations 8
ExecutionTime = 9.73 s  ClockTime = 10 s

forces wings output:
    sum of forces:
        pressure : (0.902469 21.5481 -6.50945e-21)
        viscous  : (0.31282 -0.00931097 1.34195e-21)
        porous   : (0 0 0)
    sum of moments:
        pressure : (-1.07741 0.0451234 5.67134)
        viscous  : (0.000465548 0.015641 -0.027118)
        porous   : (0 0 0)

Time = 106

smoothSolver:  Solving for Ux, Initial residual = 0.00168842, Final residual = 6.92396e-06, No Iterations 8
smoothSolver:  Solving for Uy, Initial residual = 0.00107381, Final residual = 5.34935e-06, No Iterations 8
GAMG:  Solving for p, Initial residual = 0.00112738, Final residual = 8.52346e-06, No Iterations 5
time step continuity errors : sum local = 2.73977e-06, global = -1.66267e-16, cumulative = -1.87471e-15
smoothSolver:  Solving for nuTilda, Initial residual = 0.00083964, Final residual = 3.7144e-06, No Iterations 8
bounding nuTilda, min: -0.000155352 max: 0.404717 average: 0.0487387
ExecutionTime = 9.82 s  ClockTime = 10 s

Time = 107

smoothSolver:  Solving for Ux, Initial residual = 0.00167799, Final residual = 6.8749e-06, No Iterations 8
smoothSolver:  Solving for Uy, Initial residual = 0.00106625, Final residual = 5.30225e-06, No Iterations 8
GAMG:  Solving for p, Initial residual = 0.00111865, Final residual = 8.47576e-06, No Iterations 5
time step continuity errors : sum local = 2.72574e-06, global = -6.03316e-17, cumulative = -1.93504e-15
smoothSolver:  Solving for nuTilda, Initial residual = 0.000823718, Final residual = 3.63763e-06, No Iterations 8
ExecutionTime = 9.91 s  ClockTime = 10 s

Time = 108

smoothSolver:  Solving for Ux, Initial residual = 0.00166754, Final residual = 6.82556e-06, No Iterations 8
smoothSolver:  Solving for Uy, Initial residual = 0.00105846, Final residual = 5.25432e-06, No Iterations 8
GAMG:  Solving for p, Initial residual = 0.00110607, Final residual = 8.34395e-06, No Iterations 5
time step continuity errors : sum local = 2.68485e-06, global = 7.96052e-17, cumulative = -1.85543e-15
smoothSolver:  Solving for nuTilda, Initial residual = 0.000808081, Final residual = 3.56319e-06, No Iterations 8
bounding nuTilda, min: -0.000161738 max: 0.404725 average: 0.0482555
ExecutionTime = 10 s  ClockTime = 10 s

Time = 109

smoothSolver:  Solving for Ux, Initial residual = 0.0016571, Final residual = 6.77592e-06, No Iterations 8
smoothSolver:  Solving for Uy, Initial residual = 0.00105045, Final residual = 5.20553e-06, No Iterations 8
GAMG:  Solving for p, Initial residual = 0.00109647, Final residual = 8.2788e-06, No Iterations 5
time step continuity errors : sum local = 2.66512e-06, global = 1.78835e-17, cumulative = -1.83755e-15
smoothSolver:  Solving for nuTilda, Initial residual = 0.000792844, Final residual = 3.49077e-06, No Iterations 8
ExecutionTime = 10.09 s  ClockTime = 10 s

Time = 110

smoothSolver:  Solving for Ux, Initial residual = 0.0016467, Final residual = 6.72582e-06, No Iterations 8
smoothSolver:  Solving for Uy, Initial residual = 0.0010422, Final residual = 5.1561e-06, No Iterations 8
GAMG:  Solving for p, Initial residual = 0.00108373, Final residual = 8.14496e-06, No Iterations 5
time step continuity errors : sum local = 2.62343e-06, global = -1.02579e-16, cumulative = -1.94013e-15
smoothSolver:  Solving for nuTilda, Initial residual = 0.000778045, Final residual = 3.42021e-06, No Iterations 8
bounding nuTilda, min: -0.000165994 max: 0.404733 average: 0.0477848
ExecutionTime = 10.18 s  ClockTime = 10 s

forces wings output:
    sum of forces:
        pressure : (0.883245 21.9047 -6.41385e-21)
        viscous  : (0.308384 -0.00886763 1.28993e-21)
        porous   : (0 0 0)
    sum of moments:
        pressure : (-1.09524 0.0441622 5.7012)
        viscous  : (0.000443381 0.0154192 -0.0266939)
        porous   : (0 0 0)

Time = 111

smoothSolver:  Solving for Ux, Initial residual = 0.00163627, Final residual = 6.67564e-06, No Iterations 8
smoothSolver:  Solving for Uy, Initial residual = 0.00103379, Final residual = 5.10579e-06, No Iterations 8
GAMG:  Solving for p, Initial residual = 0.00107381, Final residual = 8.06621e-06, No Iterations 5
time step continuity errors : sum local = 2.59924e-06, global = -1.9412e-16, cumulative = -2.13425e-15
smoothSolver:  Solving for nuTilda, Initial residual = 0.00076372, Final residual = 3.35146e-06, No Iterations 8
ExecutionTime = 10.28 s  ClockTime = 10 s

Time = 112

smoothSolver:  Solving for Ux, Initial residual = 0.00162571, Final residual = 6.62492e-06, No Iterations 8
smoothSolver:  Solving for Uy, Initial residual = 0.00102522, Final residual = 5.05487e-06, No Iterations 8
GAMG:  Solving for p, Initial residual = 0.00106075, Final residual = 7.9269e-06, No Iterations 5
time step continuity errors : sum local = 2.55575e-06, global = 1.03058e-16, cumulative = -2.03119e-15
smoothSolver:  Solving for nuTilda, Initial residual = 0.000749753, Final residual = 3.28443e-06, No Iterations 8
bounding nuTilda, min: -0.00016892 max: 0.40474 average: 0.0473261
ExecutionTime = 10.37 s  ClockTime = 10 s

Time = 113

smoothSolver:  Solving for Ux, Initial residual = 0.00161512, Final residual = 6.57375e-06, No Iterations 8
smoothSolver:  Solving for Uy, Initial residual = 0.0010165, Final residual = 5.00313e-06, No Iterations 8
GAMG:  Solving for p, Initial residual = 0.00105044, Final residual = 7.82942e-06, No Iterations 5
time step continuity errors : sum local = 2.52551e-06, global = -7.47089e-17, cumulative = -2.1059e-15
smoothSolver:  Solving for nuTilda, Initial residual = 0.000736147, Final residual = 3.21915e-06, No Iterations 8
ExecutionTime = 10.46 s  ClockTime = 10 s

Time = 114

smoothSolver:  Solving for Ux, Initial residual = 0.00160446, Final residual = 6.52208e-06, No Iterations 8
smoothSolver:  Solving for Uy, Initial residual = 0.00100755, Final residual = 4.9509e-06, No Iterations 8
GAMG:  Solving for p, Initial residual = 0.00103787, Final residual = 7.68245e-06, No Iterations 5
time step continuity errors : sum local = 2.47945e-06, global = -5.10111e-17, cumulative = -2.15691e-15
smoothSolver:  Solving for nuTilda, Initial residual = 0.000722905, Final residual = 3.15559e-06, No Iterations 8
bounding nuTilda, min: -0.000170788 max: 0.404748 average: 0.0468792
ExecutionTime = 10.55 s  ClockTime = 11 s

Time = 115

smoothSolver:  Solving for Ux, Initial residual = 0.00159374, Final residual = 6.46997e-06, No Iterations 8
smoothSolver:  Solving for Uy, Initial residual = 0.000998436, Final residual = 4.89802e-06, No Iterations 8
GAMG:  Solving for p, Initial residual = 0.00102728, Final residual = 7.56516e-06, No Iterations 5
time step continuity errors : sum local = 2.44273e-06, global = -1.76999e-16, cumulative = -2.33391e-15
smoothSolver:  Solving for nuTilda, Initial residual = 0.000710026, Final residual = 3.09368e-06, No Iterations 8
ExecutionTime = 10.64 s  ClockTime = 11 s

forces wings output:
    sum of forces:
        pressure : (0.861604 22.2407 -6.36592e-21)
        viscous  : (0.304493 -0.00842628 1.24552e-21)
        porous   : (0 0 0)
    sum of moments:
        pressure : (-1.11203 0.0430802 5.72271)
        viscous  : (0.000421314 0.0152246 -0.0263164)
        porous   : (0 0 0)

Time = 116

smoothSolver:  Solving for Ux, Initial residual = 0.00158291, Final residual = 6.41718e-06, No Iterations 8
smoothSolver:  Solving for Uy, Initial residual = 0.000989178, Final residual = 4.8445e-06, No Iterations 8
GAMG:  Solving for p, Initial residual = 0.00101485, Final residual = 8.50603e-06, No Iterations 5
time step continuity errors : sum local = 2.74479e-06, global = -8.66425e-17, cumulative = -2.42055e-15
smoothSolver:  Solving for nuTilda, Initial residual = 0.000697373, Final residual = 3.03281e-06, No Iterations 8
[...]
smoothSolver:  Solving for nuTilda, Initial residual = 2.59731e-08, Final residual = 2.48535e-10, No Iterations 2
bounding nuTilda, min: -1.64872e-05 max: 0.404732 average: 0.0276508
ExecutionTime = 368.51 s  ClockTime = 369 s

Time = 4974

smoothSolver:  Solving for Ux, Initial residual = 2.77435e-07, Final residual = 2.41436e-09, No Iterations 4
smoothSolver:  Solving for Uy, Initial residual = 2.1786e-07, Final residual = 4.08045e-09, No Iterations 4
GAMG:  Solving for p, Initial residual = 5.58832e-06, Final residual = 6.56791e-07, No Iterations 1
time step continuity errors : sum local = 2.0569e-07, global = -6.60742e-17, cumulative = 3.09629e-14
smoothSolver:  Solving for nuTilda, Initial residual = 1.75596e-08, Final residual = 2.58963e-10, No Iterations 2
bounding nuTilda, min: -1.64914e-05 max: 0.404732 average: 0.0276509
ExecutionTime = 368.57 s  ClockTime = 369 s

Time = 4975

smoothSolver:  Solving for Ux, Initial residual = 2.91908e-07, Final residual = 2.45051e-09, No Iterations 4
smoothSolver:  Solving for Uy, Initial residual = 2.24028e-07, Final residual = 4.09011e-09, No Iterations 4
GAMG:  Solving for p, Initial residual = 5.47949e-06, Final residual = 6.51654e-07, No Iterations 1
time step continuity errors : sum local = 2.04083e-07, global = -1.2651e-16, cumulative = 3.08364e-14
smoothSolver:  Solving for nuTilda, Initial residual = 2.59731e-08, Final residual = 2.48535e-10, No Iterations 2
bounding nuTilda, min: -1.64872e-05 max: 0.404732 average: 0.0276508
ExecutionTime = 368.64 s  ClockTime = 369 s

forces wings output:
    sum of forces:
        pressure : (0.0745865 24.3953 -3.63676e-20)
        viscous  : (0.228491 -0.00274349 -2.34333e-22)
        porous   : (0 0 0)
    sum of moments:
        pressure : (-1.21977 0.00372933 4.64615)
        viscous  : (0.000137174 0.0114245 -0.0188796)
        porous   : (0 0 0)

Time = 4976

smoothSolver:  Solving for Ux, Initial residual = 2.77435e-07, Final residual = 2.41436e-09, No Iterations 4
smoothSolver:  Solving for Uy, Initial residual = 2.1786e-07, Final residual = 4.08045e-09, No Iterations 4
GAMG:  Solving for p, Initial residual = 5.58832e-06, Final residual = 6.56791e-07, No Iterations 1
time step continuity errors : sum local = 2.0569e-07, global = 1.11263e-16, cumulative = 3.09476e-14
smoothSolver:  Solving for nuTilda, Initial residual = 1.75596e-08, Final residual = 2.58963e-10, No Iterations 2
bounding nuTilda, min: -1.64914e-05 max: 0.404732 average: 0.0276509
ExecutionTime = 368.72 s  ClockTime = 369 s

Time = 4977

smoothSolver:  Solving for Ux, Initial residual = 2.91908e-07, Final residual = 2.45051e-09, No Iterations 4
smoothSolver:  Solving for Uy, Initial residual = 2.24028e-07, Final residual = 4.09011e-09, No Iterations 4
GAMG:  Solving for p, Initial residual = 5.47949e-06, Final residual = 6.51654e-07, No Iterations 1
time step continuity errors : sum local = 2.04083e-07, global = 4.64999e-17, cumulative = 3.09941e-14
smoothSolver:  Solving for nuTilda, Initial residual = 2.59731e-08, Final residual = 2.48535e-10, No Iterations 2
bounding nuTilda, min: -1.64872e-05 max: 0.404732 average: 0.0276508
ExecutionTime = 368.79 s  ClockTime = 369 s

Time = 4978

smoothSolver:  Solving for Ux, Initial residual = 2.77435e-07, Final residual = 2.41436e-09, No Iterations 4
smoothSolver:  Solving for Uy, Initial residual = 2.1786e-07, Final residual = 4.08045e-09, No Iterations 4
GAMG:  Solving for p, Initial residual = 5.58832e-06, Final residual = 6.56791e-07, No Iterations 1
time step continuity errors : sum local = 2.0569e-07, global = -9.48432e-17, cumulative = 3.08993e-14
smoothSolver:  Solving for nuTilda, Initial residual = 1.75596e-08, Final residual = 2.58963e-10, No Iterations 2
bounding nuTilda, min: -1.64914e-05 max: 0.404732 average: 0.0276509
ExecutionTime = 368.85 s  ClockTime = 369 s

Time = 4979

smoothSolver:  Solving for Ux, Initial residual = 2.91908e-07, Final residual = 2.45051e-09, No Iterations 4
smoothSolver:  Solving for Uy, Initial residual = 2.24028e-07, Final residual = 4.09011e-09, No Iterations 4
GAMG:  Solving for p, Initial residual = 5.47949e-06, Final residual = 6.51654e-07, No Iterations 1
time step continuity errors : sum local = 2.04083e-07, global = 1.11146e-16, cumulative = 3.10104e-14
smoothSolver:  Solving for nuTilda, Initial residual = 2.59731e-08, Final residual = 2.48535e-10, No Iterations 2
bounding nuTilda, min: -1.64872e-05 max: 0.404732 average: 0.0276508
ExecutionTime = 368.93 s  ClockTime = 369 s

Time = 4980

smoothSolver:  Solving for Ux, Initial residual = 2.77435e-07, Final residual = 2.41436e-09, No Iterations 4
smoothSolver:  Solving for Uy, Initial residual = 2.1786e-07, Final residual = 4.08045e-09, No Iterations 4
GAMG:  Solving for p, Initial residual = 5.58832e-06, Final residual = 6.56791e-07, No Iterations 1
time step continuity errors : sum local = 2.0569e-07, global = -9.77152e-17, cumulative = 3.09127e-14
smoothSolver:  Solving for nuTilda, Initial residual = 1.75596e-08, Final residual = 2.58963e-10, No Iterations 2
bounding nuTilda, min: -1.64914e-05 max: 0.404732 average: 0.0276509
ExecutionTime = 369 s  ClockTime = 369 s

forces wings output:
    sum of forces:
        pressure : (0.0745901 24.3953 -3.63994e-20)
        viscous  : (0.228459 -0.00274924 -2.32314e-22)
        porous   : (0 0 0)
    sum of moments:
        pressure : (-1.21977 0.0037295 4.64615)
        viscous  : (0.000137462 0.011423 -0.0188778)
        porous   : (0 0 0)

Time = 4981

smoothSolver:  Solving for Ux, Initial residual = 2.91908e-07, Final residual = 2.45051e-09, No Iterations 4
smoothSolver:  Solving for Uy, Initial residual = 2.24028e-07, Final residual = 4.09011e-09, No Iterations 4
GAMG:  Solving for p, Initial residual = 5.47949e-06, Final residual = 6.51654e-07, No Iterations 1
time step continuity errors : sum local = 2.04083e-07, global = 1.33139e-16, cumulative = 3.10459e-14
smoothSolver:  Solving for nuTilda, Initial residual = 2.59731e-08, Final residual = 2.48535e-10, No Iterations 2
bounding nuTilda, min: -1.64872e-05 max: 0.404732 average: 0.0276508
ExecutionTime = 369.07 s  ClockTime = 369 s

Time = 4982

smoothSolver:  Solving for Ux, Initial residual = 2.77435e-07, Final residual = 2.41436e-09, No Iterations 4
smoothSolver:  Solving for Uy, Initial residual = 2.1786e-07, Final residual = 4.08045e-09, No Iterations 4
GAMG:  Solving for p, Initial residual = 5.58832e-06, Final residual = 6.56791e-07, No Iterations 1
time step continuity errors : sum local = 2.0569e-07, global = 4.94075e-17, cumulative = 3.10953e-14
smoothSolver:  Solving for nuTilda, Initial residual = 1.75596e-08, Final residual = 2.58963e-10, No Iterations 2
bounding nuTilda, min: -1.64914e-05 max: 0.404732 average: 0.0276509
ExecutionTime = 369.14 s  ClockTime = 369 s

Time = 4983

smoothSolver:  Solving for Ux, Initial residual = 2.91908e-07, Final residual = 2.45051e-09, No Iterations 4
smoothSolver:  Solving for Uy, Initial residual = 2.24028e-07, Final residual = 4.09011e-09, No Iterations 4
GAMG:  Solving for p, Initial residual = 5.47949e-06, Final residual = 6.51654e-07, No Iterations 1
time step continuity errors : sum local = 2.04083e-07, global = -8.03691e-17, cumulative = 3.10149e-14
smoothSolver:  Solving for nuTilda, Initial residual = 2.59731e-08, Final residual = 2.48535e-10, No Iterations 2
bounding nuTilda, min: -1.64872e-05 max: 0.404732 average: 0.0276508
ExecutionTime = 369.2 s  ClockTime = 370 s

Time = 4984

smoothSolver:  Solving for Ux, Initial residual = 2.77435e-07, Final residual = 2.41436e-09, No Iterations 4
smoothSolver:  Solving for Uy, Initial residual = 2.1786e-07, Final residual = 4.08045e-09, No Iterations 4
GAMG:  Solving for p, Initial residual = 5.58832e-06, Final residual = 6.56791e-07, No Iterations 1
time step continuity errors : sum local = 2.0569e-07, global = 1.99059e-16, cumulative = 3.1214e-14
smoothSolver:  Solving for nuTilda, Initial residual = 1.75596e-08, Final residual = 2.58963e-10, No Iterations 2
bounding nuTilda, min: -1.64914e-05 max: 0.404732 average: 0.0276509
ExecutionTime = 369.27 s  ClockTime = 370 s

Time = 4985

smoothSolver:  Solving for Ux, Initial residual = 2.91908e-07, Final residual = 2.45051e-09, No Iterations 4
smoothSolver:  Solving for Uy, Initial residual = 2.24028e-07, Final residual = 4.09011e-09, No Iterations 4
GAMG:  Solving for p, Initial residual = 5.47949e-06, Final residual = 6.51654e-07, No Iterations 1
time step continuity errors : sum local = 2.04083e-07, global = 4.50243e-16, cumulative = 3.16642e-14
smoothSolver:  Solving for nuTilda, Initial residual = 2.59731e-08, Final residual = 2.48535e-10, No Iterations 2
bounding nuTilda, min: -1.64872e-05 max: 0.404732 average: 0.0276508
ExecutionTime = 369.34 s  ClockTime = 370 s

forces wings output:
    sum of forces:
        pressure : (0.0745865 24.3953 -3.63676e-20)
        viscous  : (0.228491 -0.00274349 -2.34333e-22)
        porous   : (0 0 0)
    sum of moments:
        pressure : (-1.21977 0.00372933 4.64615)
        viscous  : (0.000137174 0.0114245 -0.0188796)
        porous   : (0 0 0)

Time = 4986

smoothSolver:  Solving for Ux, Initial residual = 2.77435e-07, Final residual = 2.41436e-09, No Iterations 4
smoothSolver:  Solving for Uy, Initial residual = 2.1786e-07, Final residual = 4.08045e-09, No Iterations 4
GAMG:  Solving for p, Initial residual = 5.58832e-06, Final residual = 6.56791e-07, No Iterations 1
time step continuity errors : sum local = 2.0569e-07, global = -1.16028e-16, cumulative = 3.15482e-14
smoothSolver:  Solving for nuTilda, Initial residual = 1.75596e-08, Final residual = 2.58963e-10, No Iterations 2
bounding nuTilda, min: -1.64914e-05 max: 0.404732 average: 0.0276509
ExecutionTime = 369.41 s  ClockTime = 370 s

Time = 4987

smoothSolver:  Solving for Ux, Initial residual = 2.91908e-07, Final residual = 2.45051e-09, No Iterations 4
smoothSolver:  Solving for Uy, Initial residual = 2.24028e-07, Final residual = 4.09011e-09, No Iterations 4
GAMG:  Solving for p, Initial residual = 5.47949e-06, Final residual = 6.51654e-07, No Iterations 1
time step continuity errors : sum local = 2.04083e-07, global = -1.38248e-16, cumulative = 3.14099e-14
smoothSolver:  Solving for nuTilda, Initial residual = 2.59731e-08, Final residual = 2.48535e-10, No Iterations 2
bounding nuTilda, min: -1.64872e-05 max: 0.404732 average: 0.0276508
ExecutionTime = 369.49 s  ClockTime = 370 s

Time = 4988

smoothSolver:  Solving for Ux, Initial residual = 2.77435e-07, Final residual = 2.41436e-09, No Iterations 4
smoothSolver:  Solving for Uy, Initial residual = 2.1786e-07, Final residual = 4.08045e-09, No Iterations 4
GAMG:  Solving for p, Initial residual = 5.58832e-06, Final residual = 6.56791e-07, No Iterations 1
time step continuity errors : sum local = 2.0569e-07, global = 2.00066e-16, cumulative = 3.161e-14
smoothSolver:  Solving for nuTilda, Initial residual = 1.75596e-08, Final residual = 2.58963e-10, No Iterations 2
bounding nuTilda, min: -1.64914e-05 max: 0.404732 average: 0.0276509
ExecutionTime = 369.56 s  ClockTime = 370 s

Time = 4989

smoothSolver:  Solving for Ux, Initial residual = 2.91908e-07, Final residual = 2.45051e-09, No Iterations 4
smoothSolver:  Solving for Uy, Initial residual = 2.24028e-07, Final residual = 4.09011e-09, No Iterations 4
GAMG:  Solving for p, Initial residual = 5.47949e-06, Final residual = 6.51654e-07, No Iterations 1
time step continuity errors : sum local = 2.04083e-07, global = 3.63843e-17, cumulative = 3.16464e-14
smoothSolver:  Solving for nuTilda, Initial residual = 2.59731e-08, Final residual = 2.48535e-10, No Iterations 2
bounding nuTilda, min: -1.64872e-05 max: 0.404732 average: 0.0276508
ExecutionTime = 369.63 s  ClockTime = 370 s

Time = 4990

smoothSolver:  Solving for Ux, Initial residual = 2.77435e-07, Final residual = 2.41436e-09, No Iterations 4
smoothSolver:  Solving for Uy, Initial residual = 2.1786e-07, Final residual = 4.08045e-09, No Iterations 4
GAMG:  Solving for p, Initial residual = 5.58832e-06, Final residual = 6.56791e-07, No Iterations 1
time step continuity errors : sum local = 2.0569e-07, global = -4.4332e-17, cumulative = 3.1602e-14
smoothSolver:  Solving for nuTilda, Initial residual = 1.75596e-08, Final residual = 2.58963e-10, No Iterations 2
bounding nuTilda, min: -1.64914e-05 max: 0.404732 average: 0.0276509
ExecutionTime = 369.7 s  ClockTime = 370 s

forces wings output:
    sum of forces:
        pressure : (0.0745901 24.3953 -3.63994e-20)
        viscous  : (0.228459 -0.00274924 -2.32314e-22)
        porous   : (0 0 0)
    sum of moments:
        pressure : (-1.21977 0.0037295 4.64615)
        viscous  : (0.000137462 0.011423 -0.0188778)
        porous   : (0 0 0)

Time = 4991

smoothSolver:  Solving for Ux, Initial residual = 2.91908e-07, Final residual = 2.45051e-09, No Iterations 4
smoothSolver:  Solving for Uy, Initial residual = 2.24028e-07, Final residual = 4.09011e-09, No Iterations 4
GAMG:  Solving for p, Initial residual = 5.47949e-06, Final residual = 6.51654e-07, No Iterations 1
time step continuity errors : sum local = 2.04083e-07, global = -1.79233e-16, cumulative = 3.14228e-14
smoothSolver:  Solving for nuTilda, Initial residual = 2.59731e-08, Final residual = 2.48535e-10, No Iterations 2
bounding nuTilda, min: -1.64872e-05 max: 0.404732 average: 0.0276508
ExecutionTime = 369.77 s  ClockTime = 370 s

Time = 4992

smoothSolver:  Solving for Ux, Initial residual = 2.77435e-07, Final residual = 2.41436e-09, No Iterations 4
smoothSolver:  Solving for Uy, Initial residual = 2.1786e-07, Final residual = 4.08045e-09, No Iterations 4
GAMG:  Solving for p, Initial residual = 5.58832e-06, Final residual = 6.56791e-07, No Iterations 1
time step continuity errors : sum local = 2.0569e-07, global = -5.68257e-17, cumulative = 3.1366e-14
smoothSolver:  Solving for nuTilda, Initial residual = 1.75596e-08, Final residual = 2.58963e-10, No Iterations 2
bounding nuTilda, min: -1.64914e-05 max: 0.404732 average: 0.0276509
ExecutionTime = 369.83 s  ClockTime = 370 s

Time = 4993

smoothSolver:  Solving for Ux, Initial residual = 2.91908e-07, Final residual = 2.45051e-09, No Iterations 4
smoothSolver:  Solving for Uy, Initial residual = 2.24028e-07, Final residual = 4.09011e-09, No Iterations 4
GAMG:  Solving for p, Initial residual = 5.47949e-06, Final residual = 6.51654e-07, No Iterations 1
time step continuity errors : sum local = 2.04083e-07, global = -1.91899e-16, cumulative = 3.11741e-14
smoothSolver:  Solving for nuTilda, Initial residual = 2.59731e-08, Final residual = 2.48535e-10, No Iterations 2
bounding nuTilda, min: -1.64872e-05 max: 0.404732 average: 0.0276508
ExecutionTime = 369.9 s  ClockTime = 370 s

Time = 4994

smoothSolver:  Solving for Ux, Initial residual = 2.77435e-07, Final residual = 2.41436e-09, No Iterations 4
smoothSolver:  Solving for Uy, Initial residual = 2.1786e-07, Final residual = 4.08045e-09, No Iterations 4
GAMG:  Solving for p, Initial residual = 5.58832e-06, Final residual = 6.56791e-07, No Iterations 1
time step continuity errors : sum local = 2.0569e-07, global = 7.94322e-17, cumulative = 3.12535e-14
smoothSolver:  Solving for nuTilda, Initial residual = 1.75596e-08, Final residual = 2.58963e-10, No Iterations 2
bounding nuTilda, min: -1.64914e-05 max: 0.404732 average: 0.0276509
ExecutionTime = 369.97 s  ClockTime = 370 s

Time = 4995

smoothSolver:  Solving for Ux, Initial residual = 2.91908e-07, Final residual = 2.45051e-09, No Iterations 4
smoothSolver:  Solving for Uy, Initial residual = 2.24028e-07, Final residual = 4.09011e-09, No Iterations 4
GAMG:  Solving for p, Initial residual = 5.47949e-06, Final residual = 6.51654e-07, No Iterations 1
time step continuity errors : sum local = 2.04083e-07, global = 1.85636e-16, cumulative = 3.14392e-14
smoothSolver:  Solving for nuTilda, Initial residual = 2.59731e-08, Final residual = 2.48535e-10, No Iterations 2
bounding nuTilda, min: -1.64872e-05 max: 0.404732 average: 0.0276508
ExecutionTime = 370.05 s  ClockTime = 370 s

forces wings output:
    sum of forces:
        pressure : (0.0745865 24.3953 -3.63676e-20)
        viscous  : (0.228491 -0.00274349 -2.34333e-22)
        porous   : (0 0 0)
    sum of moments:
        pressure : (-1.21977 0.00372933 4.64615)
        viscous  : (0.000137174 0.0114245 -0.0188796)
        porous   : (0 0 0)

Time = 4996

smoothSolver:  Solving for Ux, Initial residual = 2.77435e-07, Final residual = 2.41436e-09, No Iterations 4
smoothSolver:  Solving for Uy, Initial residual = 2.1786e-07, Final residual = 4.08045e-09, No Iterations 4
GAMG:  Solving for p, Initial residual = 5.58832e-06, Final residual = 6.56791e-07, No Iterations 1
time step continuity errors : sum local = 2.0569e-07, global = -2.9361e-16, cumulative = 3.11455e-14
smoothSolver:  Solving for nuTilda, Initial residual = 1.75596e-08, Final residual = 2.58963e-10, No Iterations 2
bounding nuTilda, min: -1.64914e-05 max: 0.404732 average: 0.0276509
ExecutionTime = 370.13 s  ClockTime = 370 s

Time = 4997

smoothSolver:  Solving for Ux, Initial residual = 2.91908e-07, Final residual = 2.45051e-09, No Iterations 4
smoothSolver:  Solving for Uy, Initial residual = 2.24028e-07, Final residual = 4.09011e-09, No Iterations 4
GAMG:  Solving for p, Initial residual = 5.47949e-06, Final residual = 6.51654e-07, No Iterations 1
time step continuity errors : sum local = 2.04083e-07, global = -1.28621e-16, cumulative = 3.10169e-14
smoothSolver:  Solving for nuTilda, Initial residual = 2.59731e-08, Final residual = 2.48535e-10, No Iterations 2
bounding nuTilda, min: -1.64872e-05 max: 0.404732 average: 0.0276508
ExecutionTime = 370.19 s  ClockTime = 371 s

Time = 4998

smoothSolver:  Solving for Ux, Initial residual = 2.77435e-07, Final residual = 2.41436e-09, No Iterations 4
smoothSolver:  Solving for Uy, Initial residual = 2.1786e-07, Final residual = 4.08045e-09, No Iterations 4
GAMG:  Solving for p, Initial residual = 5.58832e-06, Final residual = 6.56791e-07, No Iterations 1
time step continuity errors : sum local = 2.0569e-07, global = -1.30959e-17, cumulative = 3.10038e-14
smoothSolver:  Solving for nuTilda, Initial residual = 1.75596e-08, Final residual = 2.58963e-10, No Iterations 2
bounding nuTilda, min: -1.64914e-05 max: 0.404732 average: 0.0276509
ExecutionTime = 370.26 s  ClockTime = 371 s

Time = 4999

smoothSolver:  Solving for Ux, Initial residual = 2.91908e-07, Final residual = 2.45051e-09, No Iterations 4
smoothSolver:  Solving for Uy, Initial residual = 2.24028e-07, Final residual = 4.09011e-09, No Iterations 4
GAMG:  Solving for p, Initial residual = 5.47949e-06, Final residual = 6.51654e-07, No Iterations 1
time step continuity errors : sum local = 2.04083e-07, global = 7.75232e-17, cumulative = 3.10814e-14
smoothSolver:  Solving for nuTilda, Initial residual = 2.59731e-08, Final residual = 2.48535e-10, No Iterations 2
bounding nuTilda, min: -1.64872e-05 max: 0.404732 average: 0.0276508
ExecutionTime = 370.32 s  ClockTime = 371 s

Time = 5000

smoothSolver:  Solving for Ux, Initial residual = 2.77435e-07, Final residual = 2.41436e-09, No Iterations 4
smoothSolver:  Solving for Uy, Initial residual = 2.1786e-07, Final residual = 4.08045e-09, No Iterations 4
GAMG:  Solving for p, Initial residual = 5.58832e-06, Final residual = 6.56791e-07, No Iterations 1
time step continuity errors : sum local = 2.0569e-07, global = -3.41687e-16, cumulative = 3.07397e-14
smoothSolver:  Solving for nuTilda, Initial residual = 1.75596e-08, Final residual = 2.58963e-10, No Iterations 2
bounding nuTilda, min: -1.64914e-05 max: 0.404732 average: 0.0276509
ExecutionTime = 370.53 s  ClockTime = 371 s

forces wings output:
    sum of forces:
        pressure : (0.0745901 24.3953 -3.63994e-20)
        viscous  : (0.228459 -0.00274924 -2.32314e-22)
        porous   : (0 0 0)
    sum of moments:
        pressure : (-1.21977 0.0037295 4.64615)
        viscous  : (0.000137462 0.011423 -0.0188778)
        porous   : (0 0 0)

End

