/*---------------------------------------------------------------------------*\
| =========                 |                                                 |
| \\      /  F ield         | OpenFOAM: The Open Source CFD Toolbox           |
|  \\    /   O peration     | Version:  2.3.0                                 |
|   \\  /    A nd           | Web:      www.OpenFOAM.org                      |
|    \\/     M anipulation  |                                                 |
\*---------------------------------------------------------------------------*/
Build  : 2.3.0-f5222ca19ce6
Exec   : simpleFoam -case Runs/test/case
Date   : Jan 07 2015
Time   : 02:32:02
Host   : "lordvon-XPS-8300"
PID    : 12445
Case   : Runs/test/case
nProcs : 1
sigFpe : Enabling floating point exception trapping (FOAM_SIGFPE).
fileModificationChecking : Monitoring run-time modified files using timeStampMaster
allowSystemOperations : Disallowing user-supplied system call operations

// * * * * * * * * * * * * * * * * * * * * * * * * * * * * * * * * * * * * * //
Create time

Create mesh for time = 0

Reading field p

Reading field U

Reading/calculating face flux field phi

Selecting incompressible transport model Newtonian
Selecting RAS turbulence model SpalartAllmaras
SpalartAllmarasCoeffs
{
    sigmaNut        0.66666;
    kappa           0.41;
    Cb1             0.1355;
    Cb2             0.622;
    Cw2             0.3;
    Cw3             2;
    Cv1             7.1;
    Cv2             5;
}

    Employing Ashford correction
No finite volume options present


SIMPLE: convergence criteria
    field p	 tolerance 1e-12
    field U	 tolerance 1e-12
    field nuTilda	 tolerance 1e-12


Starting time loop

forces wings:
    Not including porosity effects

Time = 1

smoothSolver:  Solving for Ux, Initial residual = 1, Final residual = 0.0473472, No Iterations 2
smoothSolver:  Solving for Uy, Initial residual = 1, Final residual = 0.037816, No Iterations 2
GAMG:  Solving for p, Initial residual = 1, Final residual = 0.0635425, No Iterations 6
time step continuity errors : sum local = 0.0798326, global = -2.64688e-16, cumulative = -2.64688e-16
smoothSolver:  Solving for nuTilda, Initial residual = 1, Final residual = 0.0154219, No Iterations 2
ExecutionTime = 0.25 s  ClockTime = 1 s

Time = 2

smoothSolver:  Solving for Ux, Initial residual = 0.679391, Final residual = 0.0531074, No Iterations 4
smoothSolver:  Solving for Uy, Initial residual = 0.673301, Final residual = 0.0528713, No Iterations 4
GAMG:  Solving for p, Initial residual = 0.817729, Final residual = 0.0507594, No Iterations 3
time step continuity errors : sum local = 0.147834, global = 3.28805e-15, cumulative = 3.02336e-15
smoothSolver:  Solving for nuTilda, Initial residual = 0.19525, Final residual = 0.00969476, No Iterations 2
ExecutionTime = 0.3 s  ClockTime = 1 s

Time = 3

smoothSolver:  Solving for Ux, Initial residual = 0.298722, Final residual = 0.0228753, No Iterations 4
smoothSolver:  Solving for Uy, Initial residual = 0.287302, Final residual = 0.0219435, No Iterations 4
GAMG:  Solving for p, Initial residual = 0.73199, Final residual = 0.0451173, No Iterations 5
time step continuity errors : sum local = 0.218133, global = 3.26013e-15, cumulative = 6.2835e-15
smoothSolver:  Solving for nuTilda, Initial residual = 0.0942973, Final residual = 0.00187181, No Iterations 4
ExecutionTime = 0.36 s  ClockTime = 1 s

Time = 4

smoothSolver:  Solving for Ux, Initial residual = 0.0945196, Final residual = 0.00668232, No Iterations 4
smoothSolver:  Solving for Uy, Initial residual = 0.115401, Final residual = 0.00853768, No Iterations 4
GAMG:  Solving for p, Initial residual = 0.641828, Final residual = 0.04049, No Iterations 4
time step continuity errors : sum local = 0.187371, global = 2.70955e-15, cumulative = 8.99305e-15
smoothSolver:  Solving for nuTilda, Initial residual = 0.066324, Final residual = 0.00217086, No Iterations 4
ExecutionTime = 0.42 s  ClockTime = 1 s

Time = 5

smoothSolver:  Solving for Ux, Initial residual = 0.336323, Final residual = 0.0258091, No Iterations 4
smoothSolver:  Solving for Uy, Initial residual = 0.571004, Final residual = 0.043886, No Iterations 4
GAMG:  Solving for p, Initial residual = 0.593104, Final residual = 0.0504343, No Iterations 3
time step continuity errors : sum local = 0.21912, global = 9.97672e-16, cumulative = 9.99072e-15
smoothSolver:  Solving for nuTilda, Initial residual = 0.0538516, Final residual = 0.00222003, No Iterations 4
ExecutionTime = 0.47 s  ClockTime = 1 s

forces wings output:
    sum of forces:
        pressure : (-25.3194 -0.117865 5.90715e-19)
        viscous  : (0.165625 -0.000129813 2.46918e-20)
        porous   : (0 0 0)
    sum of moments:
        pressure : (0.000589324 -0.126597 -10.5096)
        viscous  : (6.49066e-07 0.000828124 -0.00130956)
        porous   : (0 0 0)

Time = 6

smoothSolver:  Solving for Ux, Initial residual = 0.416859, Final residual = 0.0317653, No Iterations 4
smoothSolver:  Solving for Uy, Initial residual = 0.672833, Final residual = 0.0508972, No Iterations 4
GAMG:  Solving for p, Initial residual = 0.588274, Final residual = 0.0550734, No Iterations 4
time step continuity errors : sum local = 0.261032, global = 2.46488e-15, cumulative = 1.24556e-14
smoothSolver:  Solving for nuTilda, Initial residual = 0.0444312, Final residual = 0.0020723, No Iterations 4
ExecutionTime = 0.53 s  ClockTime = 1 s

Time = 7

smoothSolver:  Solving for Ux, Initial residual = 0.341055, Final residual = 0.0253416, No Iterations 4
smoothSolver:  Solving for Uy, Initial residual = 0.468842, Final residual = 0.0363246, No Iterations 4
GAMG:  Solving for p, Initial residual = 0.396886, Final residual = 0.0203542, No Iterations 4
time step continuity errors : sum local = 0.0897823, global = 3.92886e-15, cumulative = 1.63845e-14
smoothSolver:  Solving for nuTilda, Initial residual = 0.0368546, Final residual = 0.00186777, No Iterations 4
ExecutionTime = 0.58 s  ClockTime = 1 s

Time = 8

smoothSolver:  Solving for Ux, Initial residual = 0.29797, Final residual = 0.0225729, No Iterations 4
smoothSolver:  Solving for Uy, Initial residual = 0.36967, Final residual = 0.0282454, No Iterations 4
GAMG:  Solving for p, Initial residual = 0.549416, Final residual = 0.0501654, No Iterations 3
time step continuity errors : sum local = 0.231354, global = 2.0393e-15, cumulative = 1.84238e-14
smoothSolver:  Solving for nuTilda, Initial residual = 0.0310839, Final residual = 0.00168045, No Iterations 4
ExecutionTime = 0.64 s  ClockTime = 1 s

Time = 9

smoothSolver:  Solving for Ux, Initial residual = 0.148286, Final residual = 0.0111565, No Iterations 4
smoothSolver:  Solving for Uy, Initial residual = 0.141467, Final residual = 0.0105837, No Iterations 4
GAMG:  Solving for p, Initial residual = 0.535398, Final residual = 0.03977, No Iterations 4
time step continuity errors : sum local = 0.191702, global = 5.6587e-15, cumulative = 2.40825e-14
smoothSolver:  Solving for nuTilda, Initial residual = 0.0268041, Final residual = 0.00152666, No Iterations 4
ExecutionTime = 0.69 s  ClockTime = 1 s

Time = 10

smoothSolver:  Solving for Ux, Initial residual = 0.100459, Final residual = 0.0074101, No Iterations 4
smoothSolver:  Solving for Uy, Initial residual = 0.158978, Final residual = 0.0121538, No Iterations 4
GAMG:  Solving for p, Initial residual = 0.413256, Final residual = 0.0224367, No Iterations 3
time step continuity errors : sum local = 0.0909828, global = 3.70642e-15, cumulative = 2.77889e-14
smoothSolver:  Solving for nuTilda, Initial residual = 0.0236093, Final residual = 0.00140376, No Iterations 4
ExecutionTime = 0.75 s  ClockTime = 1 s

forces wings output:
    sum of forces:
        pressure : (-10.8251 -1.83828 3.1281e-19)
        viscous  : (0.151784 -0.000756618 5.62828e-20)
        porous   : (0 0 0)
    sum of moments:
        pressure : (0.00919142 -0.0541257 -4.70402)
        viscous  : (3.78309e-06 0.00075892 -0.00430596)
        porous   : (0 0 0)

Time = 11

smoothSolver:  Solving for Ux, Initial residual = 0.127409, Final residual = 0.00946663, No Iterations 4
smoothSolver:  Solving for Uy, Initial residual = 0.274488, Final residual = 0.0207178, No Iterations 4
GAMG:  Solving for p, Initial residual = 0.440327, Final residual = 0.0272749, No Iterations 4
time step continuity errors : sum local = 0.114364, global = 3.44118e-15, cumulative = 3.12301e-14
smoothSolver:  Solving for nuTilda, Initial residual = 0.0212085, Final residual = 0.00130654, No Iterations 4
ExecutionTime = 0.81 s  ClockTime = 1 s

Time = 12

smoothSolver:  Solving for Ux, Initial residual = 0.135862, Final residual = 0.0100855, No Iterations 4
smoothSolver:  Solving for Uy, Initial residual = 0.169475, Final residual = 0.0122974, No Iterations 4
GAMG:  Solving for p, Initial residual = 0.430639, Final residual = 0.0294066, No Iterations 4
time step continuity errors : sum local = 0.120346, global = 3.62963e-15, cumulative = 3.48597e-14
smoothSolver:  Solving for nuTilda, Initial residual = 0.0193719, Final residual = 0.00122815, No Iterations 4
ExecutionTime = 0.86 s  ClockTime = 1 s

Time = 13

smoothSolver:  Solving for Ux, Initial residual = 0.133712, Final residual = 0.00974889, No Iterations 4
smoothSolver:  Solving for Uy, Initial residual = 0.204509, Final residual = 0.0153636, No Iterations 4
GAMG:  Solving for p, Initial residual = 0.278998, Final residual = 0.0276359, No Iterations 3
time step continuity errors : sum local = 0.103827, global = -8.98331e-16, cumulative = 3.39614e-14
smoothSolver:  Solving for nuTilda, Initial residual = 0.0179198, Final residual = 0.00116284, No Iterations 4
ExecutionTime = 0.91 s  ClockTime = 1 s

Time = 14

smoothSolver:  Solving for Ux, Initial residual = 0.0940404, Final residual = 0.00677854, No Iterations 4
smoothSolver:  Solving for Uy, Initial residual = 0.148462, Final residual = 0.0109917, No Iterations 4
GAMG:  Solving for p, Initial residual = 0.405662, Final residual = 0.024482, No Iterations 4
time step continuity errors : sum local = 0.0959133, global = 8.04155e-16, cumulative = 3.47655e-14
smoothSolver:  Solving for nuTilda, Initial residual = 0.0167334, Final residual = 0.00110666, No Iterations 4
bounding nuTilda, min: -3.4128e-05 max: 0.14 average: 0.0808778
ExecutionTime = 0.97 s  ClockTime = 1 s

Time = 15

smoothSolver:  Solving for Ux, Initial residual = 0.0703816, Final residual = 0.00511737, No Iterations 4
smoothSolver:  Solving for Uy, Initial residual = 0.0730077, Final residual = 0.0052875, No Iterations 4
GAMG:  Solving for p, Initial residual = 0.3607, Final residual = 0.0191566, No Iterations 4
time step continuity errors : sum local = 0.0725464, global = 3.13855e-15, cumulative = 3.79041e-14
smoothSolver:  Solving for nuTilda, Initial residual = 0.015755, Final residual = 0.00105816, No Iterations 4
bounding nuTilda, min: -0.000375597 max: 0.14 average: 0.0794225
ExecutionTime = 1.03 s  ClockTime = 1 s

forces wings output:
    sum of forces:
        pressure : (-1.32526 -1.44336 -3.24402e-20)
        viscous  : (0.136624 -0.00104629 9.73008e-20)
        porous   : (0 0 0)
    sum of moments:
        pressure : (0.00721678 -0.00662632 -0.638272)
        viscous  : (5.23143e-06 0.00068312 -0.00384829)
        porous   : (0 0 0)

Time = 16

smoothSolver:  Solving for Ux, Initial residual = 0.0612122, Final residual = 0.0044248, No Iterations 4
smoothSolver:  Solving for Uy, Initial residual = 0.10208, Final residual = 0.00751213, No Iterations 4
GAMG:  Solving for p, Initial residual = 0.256081, Final residual = 0.0109693, No Iterations 4
time step continuity errors : sum local = 0.0369887, global = 2.50423e-15, cumulative = 4.04083e-14
smoothSolver:  Solving for nuTilda, Initial residual = 0.0149487, Final residual = 0.0010165, No Iterations 4
bounding nuTilda, min: -0.000111651 max: 0.14 average: 0.0780788
ExecutionTime = 1.08 s  ClockTime = 1 s

Time = 17

smoothSolver:  Solving for Ux, Initial residual = 0.047125, Final residual = 0.00336265, No Iterations 4
smoothSolver:  Solving for Uy, Initial residual = 0.0830902, Final residual = 0.00600346, No Iterations 4
GAMG:  Solving for p, Initial residual = 0.312019, Final residual = 0.0211517, No Iterations 4
time step continuity errors : sum local = 0.0751204, global = 3.06014e-15, cumulative = 4.34684e-14
smoothSolver:  Solving for nuTilda, Initial residual = 0.014273, Final residual = 0.000980478, No Iterations 4
bounding nuTilda, min: -0.000776373 max: 0.14 average: 0.0768306
ExecutionTime = 1.14 s  ClockTime = 2 s

Time = 18

smoothSolver:  Solving for Ux, Initial residual = 0.0474132, Final residual = 0.00341898, No Iterations 4
smoothSolver:  Solving for Uy, Initial residual = 0.0636914, Final residual = 0.00465464, No Iterations 4
GAMG:  Solving for p, Initial residual = 0.262483, Final residual = 0.0124334, No Iterations 4
time step continuity errors : sum local = 0.0420979, global = 4.93204e-15, cumulative = 4.84005e-14
smoothSolver:  Solving for nuTilda, Initial residual = 0.0136913, Final residual = 0.000948528, No Iterations 4
bounding nuTilda, min: -0.00143411 max: 0.14 average: 0.0756654
ExecutionTime = 1.2 s  ClockTime = 2 s

Time = 19

smoothSolver:  Solving for Ux, Initial residual = 0.0439703, Final residual = 0.00311887, No Iterations 4
smoothSolver:  Solving for Uy, Initial residual = 0.073804, Final residual = 0.0053178, No Iterations 4
GAMG:  Solving for p, Initial residual = 0.209202, Final residual = 0.0139573, No Iterations 4
time step continuity errors : sum local = 0.0443256, global = 2.2202e-15, cumulative = 5.06207e-14
smoothSolver:  Solving for nuTilda, Initial residual = 0.0131687, Final residual = 0.000919062, No Iterations 4
bounding nuTilda, min: -0.00326504 max: 0.14 average: 0.0745727
ExecutionTime = 1.25 s  ClockTime = 2 s

Time = 20

smoothSolver:  Solving for Ux, Initial residual = 0.0302855, Final residual = 0.00209529, No Iterations 4
smoothSolver:  Solving for Uy, Initial residual = 0.044447, Final residual = 0.00315577, No Iterations 4
GAMG:  Solving for p, Initial residual = 0.248641, Final residual = 0.0164545, No Iterations 4
time step continuity errors : sum local = 0.0538397, global = 8.6913e-16, cumulative = 5.14898e-14
smoothSolver:  Solving for nuTilda, Initial residual = 0.0126888, Final residual = 0.000891264, No Iterations 4
bounding nuTilda, min: -0.00332852 max: 0.14 average: 0.0735448
ExecutionTime = 1.31 s  ClockTime = 2 s

forces wings output:
    sum of forces:
        pressure : (0.171412 0.959641 -6.64623e-20)
        viscous  : (0.109994 -0.00069702 1.43005e-19)
        porous   : (0 0 0)
    sum of moments:
        pressure : (-0.00479821 0.00085706 0.117357)
        viscous  : (3.4851e-06 0.00054997 -0.00214736)
        porous   : (0 0 0)

Time = 21

smoothSolver:  Solving for Ux, Initial residual = 0.0273006, Final residual = 0.00191801, No Iterations 4
smoothSolver:  Solving for Uy, Initial residual = 0.0387765, Final residual = 0.00278352, No Iterations 4
GAMG:  Solving for p, Initial residual = 0.1851, Final residual = 0.0151375, No Iterations 3
time step continuity errors : sum local = 0.0470046, global = 1.528e-15, cumulative = 5.30178e-14
smoothSolver:  Solving for nuTilda, Initial residual = 0.0122473, Final residual = 0.00086504, No Iterations 4
bounding nuTilda, min: -0.00409494 max: 0.14 average: 0.0725737
ExecutionTime = 1.36 s  ClockTime = 2 s

Time = 22

smoothSolver:  Solving for Ux, Initial residual = 0.0240567, Final residual = 0.00169614, No Iterations 4
smoothSolver:  Solving for Uy, Initial residual = 0.0418716, Final residual = 0.00296956, No Iterations 4
GAMG:  Solving for p, Initial residual = 0.163413, Final residual = 0.0122685, No Iterations 4
time step continuity errors : sum local = 0.0371549, global = 2.93605e-15, cumulative = 5.59539e-14
smoothSolver:  Solving for nuTilda, Initial residual = 0.0118473, Final residual = 0.000840663, No Iterations 4
bounding nuTilda, min: -0.00396014 max: 0.14 average: 0.0716534
ExecutionTime = 1.42 s  ClockTime = 2 s

Time = 23

smoothSolver:  Solving for Ux, Initial residual = 0.0179853, Final residual = 0.00124236, No Iterations 4
smoothSolver:  Solving for Uy, Initial residual = 0.0265333, Final residual = 0.00185912, No Iterations 4
GAMG:  Solving for p, Initial residual = 0.17999, Final residual = 0.00755206, No Iterations 4
time step continuity errors : sum local = 0.0230497, global = 2.11908e-15, cumulative = 5.80729e-14
smoothSolver:  Solving for nuTilda, Initial residual = 0.0114786, Final residual = 0.000817886, No Iterations 4
bounding nuTilda, min: -0.00430842 max: 0.14 average: 0.0707775
ExecutionTime = 1.48 s  ClockTime = 2 s

Time = 24

smoothSolver:  Solving for Ux, Initial residual = 0.0172803, Final residual = 0.00120996, No Iterations 4
smoothSolver:  Solving for Uy, Initial residual = 0.0276397, Final residual = 0.00196357, No Iterations 4
GAMG:  Solving for p, Initial residual = 0.128882, Final residual = 0.00947467, No Iterations 3
time step continuity errors : sum local = 0.0280323, global = 1.85728e-15, cumulative = 5.99302e-14
smoothSolver:  Solving for nuTilda, Initial residual = 0.0111335, Final residual = 0.000796312, No Iterations 4
bounding nuTilda, min: -0.00421526 max: 0.14 average: 0.0699419
ExecutionTime = 1.53 s  ClockTime = 2 s

Time = 25

smoothSolver:  Solving for Ux, Initial residual = 0.0136812, Final residual = 0.000941096, No Iterations 4
smoothSolver:  Solving for Uy, Initial residual = 0.0255291, Final residual = 0.0017828, No Iterations 4
GAMG:  Solving for p, Initial residual = 0.124588, Final residual = 0.00977806, No Iterations 4
time step continuity errors : sum local = 0.0283577, global = 3.0376e-15, cumulative = 6.29678e-14
smoothSolver:  Solving for nuTilda, Initial residual = 0.0108055, Final residual = 0.000775511, No Iterations 4
bounding nuTilda, min: -0.00436178 max: 0.14 average: 0.0691423
ExecutionTime = 1.58 s  ClockTime = 2 s

forces wings output:
    sum of forces:
        pressure : (0.0308297 1.14536 -1.16875e-19)
        viscous  : (0.0722556 -9.75513e-05 1.82797e-19)
        porous   : (0 0 0)
    sum of moments:
        pressure : (-0.00572681 0.000154148 0.0432325)
        viscous  : (4.87756e-07 0.000361278 -0.000980293)
        porous   : (0 0 0)

Time = 26

smoothSolver:  Solving for Ux, Initial residual = 0.0109675, Final residual = 0.000735262, No Iterations 4
smoothSolver:  Solving for Uy, Initial residual = 0.0187429, Final residual = 0.00132663, No Iterations 4
GAMG:  Solving for p, Initial residual = 0.127071, Final residual = 0.00741735, No Iterations 4
time step continuity errors : sum local = 0.0216376, global = 4.62779e-15, cumulative = 6.75956e-14
smoothSolver:  Solving for nuTilda, Initial residual = 0.0104943, Final residual = 0.000755489, No Iterations 4
bounding nuTilda, min: -0.00434872 max: 0.14 average: 0.0683754
ExecutionTime = 1.64 s  ClockTime = 2 s

Time = 27

smoothSolver:  Solving for Ux, Initial residual = 0.0101683, Final residual = 0.000694322, No Iterations 4
smoothSolver:  Solving for Uy, Initial residual = 0.018053, Final residual = 0.00126799, No Iterations 4
GAMG:  Solving for p, Initial residual = 0.0828824, Final residual = 0.00759828, No Iterations 3
time step continuity errors : sum local = 0.0214696, global = -5.69916e-16, cumulative = 6.70257e-14
smoothSolver:  Solving for nuTilda, Initial residual = 0.010199, Final residual = 0.000736215, No Iterations 4
bounding nuTilda, min: -0.00425789 max: 0.14 average: 0.0676382
ExecutionTime = 1.7 s  ClockTime = 2 s

Time = 28

smoothSolver:  Solving for Ux, Initial residual = 0.00854909, Final residual = 0.000586407, No Iterations 4
smoothSolver:  Solving for Uy, Initial residual = 0.0139503, Final residual = 0.000961477, No Iterations 4
GAMG:  Solving for p, Initial residual = 0.0878175, Final residual = 0.00735989, No Iterations 4
time step continuity errors : sum local = 0.0209106, global = 2.38994e-15, cumulative = 6.94156e-14
smoothSolver:  Solving for nuTilda, Initial residual = 0.00991823, Final residual = 0.000717634, No Iterations 4
bounding nuTilda, min: -0.00414592 max: 0.14 average: 0.0669284
ExecutionTime = 1.75 s  ClockTime = 2 s

Time = 29

smoothSolver:  Solving for Ux, Initial residual = 0.00757597, Final residual = 0.00052269, No Iterations 4
smoothSolver:  Solving for Uy, Initial residual = 0.0128307, Final residual = 0.000904637, No Iterations 4
GAMG:  Solving for p, Initial residual = 0.0809612, Final residual = 0.00332544, No Iterations 4
time step continuity errors : sum local = 0.00938679, global = 1.16738e-15, cumulative = 7.0583e-14
smoothSolver:  Solving for nuTilda, Initial residual = 0.00965183, Final residual = 0.000699859, No Iterations 4
bounding nuTilda, min: -0.00404915 max: 0.14 average: 0.0662435
ExecutionTime = 1.81 s  ClockTime = 2 s

Time = 30

smoothSolver:  Solving for Ux, Initial residual = 0.00702189, Final residual = 0.00048603, No Iterations 4
smoothSolver:  Solving for Uy, Initial residual = 0.0134294, Final residual = 0.000944932, No Iterations 4
GAMG:  Solving for p, Initial residual = 0.0553175, Final residual = 0.00272467, No Iterations 4
time step continuity errors : sum local = 0.007536, global = 4.35561e-15, cumulative = 7.49386e-14
smoothSolver:  Solving for nuTilda, Initial residual = 0.0093971, Final residual = 0.000682751, No Iterations 4
bounding nuTilda, min: -0.00401597 max: 0.14 average: 0.0655818
ExecutionTime = 1.86 s  ClockTime = 2 s

forces wings output:
    sum of forces:
        pressure : (0.0655391 0.346035 -6.6875e-20)
        viscous  : (0.0431691 0.000191127 1.39206e-19)
        porous   : (0 0 0)
    sum of moments:
        pressure : (-0.00173017 0.000327696 0.0334077)
        viscous  : (-9.55634e-07 0.000215845 -0.000484864)
        porous   : (0 0 0)

Time = 31

smoothSolver:  Solving for Ux, Initial residual = 0.00547676, Final residual = 0.000370055, No Iterations 4
smoothSolver:  Solving for Uy, Initial residual = 0.00938019, Final residual = 0.000649361, No Iterations 4
GAMG:  Solving for p, Initial residual = 0.0604707, Final residual = 0.00465621, No Iterations 4
time step continuity errors : sum local = 0.0129391, global = 1.39698e-15, cumulative = 7.63356e-14
smoothSolver:  Solving for nuTilda, Initial residual = 0.00915257, Final residual = 0.000666303, No Iterations 4
bounding nuTilda, min: -0.00399132 max: 0.14 average: 0.0649414
ExecutionTime = 1.92 s  ClockTime = 2 s

Time = 32

smoothSolver:  Solving for Ux, Initial residual = 0.00496779, Final residual = 0.000334225, No Iterations 4
smoothSolver:  Solving for Uy, Initial residual = 0.00978584, Final residual = 0.000697951, No Iterations 4
GAMG:  Solving for p, Initial residual = 0.0510846, Final residual = 0.00237764, No Iterations 4
time step continuity errors : sum local = 0.0064822, global = 1.37183e-15, cumulative = 7.77074e-14
smoothSolver:  Solving for nuTilda, Initial residual = 0.00891776, Final residual = 0.000650466, No Iterations 4
bounding nuTilda, min: -0.00394716 max: 0.14 average: 0.0643211
ExecutionTime = 1.98 s  ClockTime = 2 s

Time = 33

smoothSolver:  Solving for Ux, Initial residual = 0.00461258, Final residual = 0.000309901, No Iterations 4
smoothSolver:  Solving for Uy, Initial residual = 0.00906189, Final residual = 0.000636788, No Iterations 4
GAMG:  Solving for p, Initial residual = 0.0379919, Final residual = 0.00226547, No Iterations 4
time step continuity errors : sum local = 0.00607702, global = 2.65299e-15, cumulative = 8.03604e-14
smoothSolver:  Solving for nuTilda, Initial residual = 0.00869406, Final residual = 0.000635316, No Iterations 4
bounding nuTilda, min: -0.00390224 max: 0.14 average: 0.0637195
ExecutionTime = 2.04 s  ClockTime = 2 s

Time = 34

smoothSolver:  Solving for Ux, Initial residual = 0.00440918, Final residual = 0.000300052, No Iterations 4
smoothSolver:  Solving for Uy, Initial residual = 0.00628179, Final residual = 0.00043855, No Iterations 4
GAMG:  Solving for p, Initial residual = 0.0406801, Final residual = 0.00310095, No Iterations 4
time step continuity errors : sum local = 0.00842763, global = 4.1843e-15, cumulative = 8.45447e-14
smoothSolver:  Solving for nuTilda, Initial residual = 0.00848066, Final residual = 0.000620814, No Iterations 4
bounding nuTilda, min: -0.00387045 max: 0.14 average: 0.0631355
ExecutionTime = 2.09 s  ClockTime = 2 s

Time = 35

smoothSolver:  Solving for Ux, Initial residual = 0.00434275, Final residual = 0.000297608, No Iterations 4
smoothSolver:  Solving for Uy, Initial residual = 0.00721847, Final residual = 0.000515425, No Iterations 4
GAMG:  Solving for p, Initial residual = 0.0314813, Final residual = 0.00160866, No Iterations 4
time step continuity errors : sum local = 0.00433695, global = 5.54906e-15, cumulative = 9.00938e-14
smoothSolver:  Solving for nuTilda, Initial residual = 0.00827697, Final residual = 0.000606929, No Iterations 4
bounding nuTilda, min: -0.00383338 max: 0.14 average: 0.0625681
ExecutionTime = 2.15 s  ClockTime = 3 s

forces wings output:
    sum of forces:
        pressure : (0.107011 0.238497 -2.7917e-20)
        viscous  : (0.0321613 0.000281682 7.89599e-20)
        porous   : (0 0 0)
    sum of moments:
        pressure : (-0.00119249 0.000535056 0.0536069)
        viscous  : (-1.40841e-06 0.000160806 -0.000343999)
        porous   : (0 0 0)

Time = 36

smoothSolver:  Solving for Ux, Initial residual = 0.00409871, Final residual = 0.000281751, No Iterations 4
smoothSolver:  Solving for Uy, Initial residual = 0.00710148, Final residual = 0.00050597, No Iterations 4
GAMG:  Solving for p, Initial residual = 0.0263267, Final residual = 0.00172384, No Iterations 4
time step continuity errors : sum local = 0.00461937, global = 2.25314e-15, cumulative = 9.23469e-14
smoothSolver:  Solving for nuTilda, Initial residual = 0.008082, Final residual = 0.000593617, No Iterations 4
bounding nuTilda, min: -0.00379367 max: 0.14 average: 0.0620164
ExecutionTime = 2.21 s  ClockTime = 3 s

Time = 37

smoothSolver:  Solving for Ux, Initial residual = 0.00368582, Final residual = 0.000251983, No Iterations 4
smoothSolver:  Solving for Uy, Initial residual = 0.00561733, Final residual = 0.000402605, No Iterations 4
GAMG:  Solving for p, Initial residual = 0.0267811, Final residual = 0.00164863, No Iterations 4
time step continuity errors : sum local = 0.00441137, global = 3.75966e-15, cumulative = 9.61066e-14
smoothSolver:  Solving for nuTilda, Initial residual = 0.007895, Final residual = 0.000580818, No Iterations 4
bounding nuTilda, min: -0.00374616 max: 0.14 average: 0.0614795
ExecutionTime = 2.26 s  ClockTime = 3 s

Time = 38

smoothSolver:  Solving for Ux, Initial residual = 0.00341778, Final residual = 0.000232809, No Iterations 4
smoothSolver:  Solving for Uy, Initial residual = 0.0057796, Final residual = 0.000413376, No Iterations 4
GAMG:  Solving for p, Initial residual = 0.0201699, Final residual = 0.0014197, No Iterations 4
time step continuity errors : sum local = 0.00378901, global = 4.66076e-15, cumulative = 1.00767e-13
smoothSolver:  Solving for nuTilda, Initial residual = 0.00771508, Final residual = 0.000568469, No Iterations 4
bounding nuTilda, min: -0.00369876 max: 0.14 average: 0.0609568
ExecutionTime = 2.32 s  ClockTime = 3 s

Time = 39

smoothSolver:  Solving for Ux, Initial residual = 0.00334501, Final residual = 0.000228743, No Iterations 4
smoothSolver:  Solving for Uy, Initial residual = 0.0055404, Final residual = 0.000399358, No Iterations 4
GAMG:  Solving for p, Initial residual = 0.0188738, Final residual = 0.00161201, No Iterations 4
time step continuity errors : sum local = 0.00429382, global = 2.04102e-15, cumulative = 1.02808e-13
smoothSolver:  Solving for nuTilda, Initial residual = 0.00754303, Final residual = 0.000556629, No Iterations 4
bounding nuTilda, min: -0.0036538 max: 0.14 average: 0.0604474
ExecutionTime = 2.37 s  ClockTime = 3 s

Time = 40

smoothSolver:  Solving for Ux, Initial residual = 0.00330813, Final residual = 0.000226409, No Iterations 4
smoothSolver:  Solving for Uy, Initial residual = 0.0048953, Final residual = 0.000355311, No Iterations 4
GAMG:  Solving for p, Initial residual = 0.0178197, Final residual = 0.00132358, No Iterations 4
time step continuity errors : sum local = 0.00352656, global = 2.05821e-15, cumulative = 1.04867e-13
smoothSolver:  Solving for nuTilda, Initial residual = 0.00737848, Final residual = 0.000545274, No Iterations 4
bounding nuTilda, min: -0.00361198 max: 0.14 average: 0.059951
ExecutionTime = 2.43 s  ClockTime = 3 s

forces wings output:
    sum of forces:
        pressure : (0.0874553 0.35721 -2.46351e-20)
        viscous  : (0.0268541 0.000389057 5.05676e-20)
        porous   : (0 0 0)
    sum of moments:
        pressure : (-0.00178605 0.000437277 0.0486119)
        viscous  : (-1.94529e-06 0.00013427 -0.000287649)
        porous   : (0 0 0)

Time = 41

smoothSolver:  Solving for Ux, Initial residual = 0.00326389, Final residual = 0.000223586, No Iterations 4
smoothSolver:  Solving for Uy, Initial residual = 0.00501532, Final residual = 0.000364322, No Iterations 4
GAMG:  Solving for p, Initial residual = 0.0134807, Final residual = 0.00130128, No Iterations 4
time step continuity errors : sum local = 0.00346977, global = 2.74705e-15, cumulative = 1.07614e-13
smoothSolver:  Solving for nuTilda, Initial residual = 0.00722096, Final residual = 0.000534377, No Iterations 4
bounding nuTilda, min: -0.00357301 max: 0.14 average: 0.0594667
ExecutionTime = 2.49 s  ClockTime = 3 s

Time = 42

smoothSolver:  Solving for Ux, Initial residual = 0.0031933, Final residual = 0.000219264, No Iterations 4
smoothSolver:  Solving for Uy, Initial residual = 0.00485758, Final residual = 0.000356028, No Iterations 4
GAMG:  Solving for p, Initial residual = 0.0134532, Final residual = 0.000885264, No Iterations 4
time step continuity errors : sum local = 0.00236133, global = 1.85141e-15, cumulative = 1.09465e-13
smoothSolver:  Solving for nuTilda, Initial residual = 0.00706998, Final residual = 0.000523904, No Iterations 4
bounding nuTilda, min: -0.00352955 max: 0.14 average: 0.0589942
ExecutionTime = 2.54 s  ClockTime = 3 s

Time = 43

smoothSolver:  Solving for Ux, Initial residual = 0.00306485, Final residual = 0.000210389, No Iterations 4
smoothSolver:  Solving for Uy, Initial residual = 0.00458731, Final residual = 0.000337462, No Iterations 4
GAMG:  Solving for p, Initial residual = 0.0123985, Final residual = 0.000744315, No Iterations 4
time step continuity errors : sum local = 0.00198689, global = 1.15765e-15, cumulative = 1.10623e-13
smoothSolver:  Solving for nuTilda, Initial residual = 0.00692511, Final residual = 0.000513827, No Iterations 4
bounding nuTilda, min: -0.00348481 max: 0.14 average: 0.0585328
ExecutionTime = 2.6 s  ClockTime = 3 s

Time = 44

smoothSolver:  Solving for Ux, Initial residual = 0.00293357, Final residual = 0.000201061, No Iterations 4
smoothSolver:  Solving for Uy, Initial residual = 0.0045973, Final residual = 0.000336319, No Iterations 4
GAMG:  Solving for p, Initial residual = 0.0100398, Final residual = 0.000891435, No Iterations 4
time step continuity errors : sum local = 0.00237439, global = 5.83882e-15, cumulative = 1.16461e-13
smoothSolver:  Solving for nuTilda, Initial residual = 0.00678594, Final residual = 0.000504122, No Iterations 4
bounding nuTilda, min: -0.0034407 max: 0.14 average: 0.0580822
ExecutionTime = 2.66 s  ClockTime = 3 s

Time = 45

smoothSolver:  Solving for Ux, Initial residual = 0.00286481, Final residual = 0.000196469, No Iterations 4
smoothSolver:  Solving for Uy, Initial residual = 0.00448729, Final residual = 0.000330586, No Iterations 4
GAMG:  Solving for p, Initial residual = 0.0101233, Final residual = 0.000786028, No Iterations 4
time step continuity errors : sum local = 0.00209169, global = 2.2006e-15, cumulative = 1.18662e-13
smoothSolver:  Solving for nuTilda, Initial residual = 0.00665195, Final residual = 0.000494756, No Iterations 4
bounding nuTilda, min: -0.00339863 max: 0.14 average: 0.057642
ExecutionTime = 2.71 s  ClockTime = 3 s

forces wings output:
    sum of forces:
        pressure : (0.0683045 0.399241 -2.27676e-20)
        viscous  : (0.0238567 0.000450531 4.65913e-20)
        porous   : (0 0 0)
    sum of moments:
        pressure : (-0.00199621 0.000341522 0.0417495)
        viscous  : (-2.25266e-06 0.000119284 -0.000257571)
        porous   : (0 0 0)

Time = 46

smoothSolver:  Solving for Ux, Initial residual = 0.00284001, Final residual = 0.0001949, No Iterations 4
smoothSolver:  Solving for Uy, Initial residual = 0.00438834, Final residual = 0.000324509, No Iterations 4
GAMG:  Solving for p, Initial residual = 0.00926281, Final residual = 0.000849691, No Iterations 3
time step continuity errors : sum local = 0.00226307, global = 5.29604e-16, cumulative = 1.19192e-13
smoothSolver:  Solving for nuTilda, Initial residual = 0.00652265, Final residual = 0.000485695, No Iterations 4
bounding nuTilda, min: -0.00335958 max: 0.14 average: 0.0572116
ExecutionTime = 2.77 s  ClockTime = 3 s

Time = 47

smoothSolver:  Solving for Ux, Initial residual = 0.00282465, Final residual = 0.000193969, No Iterations 4
smoothSolver:  Solving for Uy, Initial residual = 0.00434124, Final residual = 0.000321096, No Iterations 4
GAMG:  Solving for p, Initial residual = 0.00809027, Final residual = 0.000733676, No Iterations 4
time step continuity errors : sum local = 0.00195259, global = 2.89179e-15, cumulative = 1.22083e-13
smoothSolver:  Solving for nuTilda, Initial residual = 0.00639791, Final residual = 0.000476929, No Iterations 4
bounding nuTilda, min: -0.0033198 max: 0.14 average: 0.0567909
ExecutionTime = 2.82 s  ClockTime = 3 s

Time = 48

smoothSolver:  Solving for Ux, Initial residual = 0.00278781, Final residual = 0.000191581, No Iterations 4
smoothSolver:  Solving for Uy, Initial residual = 0.00426132, Final residual = 0.000315998, No Iterations 4
GAMG:  Solving for p, Initial residual = 0.00809619, Final residual = 0.000632604, No Iterations 4
time step continuity errors : sum local = 0.00168694, global = 4.04657e-16, cumulative = 1.22488e-13
smoothSolver:  Solving for nuTilda, Initial residual = 0.00627787, Final residual = 0.000468501, No Iterations 4
bounding nuTilda, min: -0.0032803 max: 0.14 average: 0.0563792
ExecutionTime = 2.88 s  ClockTime = 3 s

Time = 49

smoothSolver:  Solving for Ux, Initial residual = 0.00271765, Final residual = 0.000186758, No Iterations 4
smoothSolver:  Solving for Uy, Initial residual = 0.0042083, Final residual = 0.000311967, No Iterations 4
GAMG:  Solving for p, Initial residual = 0.00737438, Final residual = 0.000641935, No Iterations 3
time step continuity errors : sum local = 0.00171456, global = 4.12209e-15, cumulative = 1.2661e-13
smoothSolver:  Solving for nuTilda, Initial residual = 0.00616233, Final residual = 0.000460393, No Iterations 4
bounding nuTilda, min: -0.00324138 max: 0.14 average: 0.0559764
ExecutionTime = 2.93 s  ClockTime = 3 s

Time = 50

smoothSolver:  Solving for Ux, Initial residual = 0.00264451, Final residual = 0.000181653, No Iterations 4
smoothSolver:  Solving for Uy, Initial residual = 0.00416537, Final residual = 0.000308594, No Iterations 4
GAMG:  Solving for p, Initial residual = 0.00683325, Final residual = 0.000512314, No Iterations 4
time step continuity errors : sum local = 0.00137077, global = 4.32746e-15, cumulative = 1.30938e-13
smoothSolver:  Solving for nuTilda, Initial residual = 0.00605097, Final residual = 0.000452568, No Iterations 4
bounding nuTilda, min: -0.00320136 max: 0.14 average: 0.055582
ExecutionTime = 3.09 s  ClockTime = 3 s

forces wings output:
    sum of forces:
        pressure : (0.0651305 0.395728 -2.09533e-20)
        viscous  : (0.0219731 0.000488485 4.71096e-20)
        porous   : (0 0 0)
    sum of moments:
        pressure : (-0.00197864 0.000325652 0.0405259)
        viscous  : (-2.44243e-06 0.000109866 -0.000237142)
        porous   : (0 0 0)

Time = 51

smoothSolver:  Solving for Ux, Initial residual = 0.00258957, Final residual = 0.000177865, No Iterations 4
smoothSolver:  Solving for Uy, Initial residual = 0.00410048, Final residual = 0.00030475, No Iterations 4
GAMG:  Solving for p, Initial residual = 0.00675332, Final residual = 0.000573009, No Iterations 3
time step continuity errors : sum local = 0.00153315, global = 4.67463e-15, cumulative = 1.35612e-13
smoothSolver:  Solving for nuTilda, Initial residual = 0.00594321, Final residual = 0.000444974, No Iterations 4
bounding nuTilda, min: -0.00316553 max: 0.14 average: 0.055196
ExecutionTime = 3.15 s  ClockTime = 4 s

Time = 52

smoothSolver:  Solving for Ux, Initial residual = 0.00255579, Final residual = 0.000175681, No Iterations 4
smoothSolver:  Solving for Uy, Initial residual = 0.00404918, Final residual = 0.000301426, No Iterations 4
GAMG:  Solving for p, Initial residual = 0.00620534, Final residual = 0.000502546, No Iterations 3
time step continuity errors : sum local = 0.00134527, global = 3.82582e-15, cumulative = 1.39438e-13
smoothSolver:  Solving for nuTilda, Initial residual = 0.00583919, Final residual = 0.000437636, No Iterations 4
bounding nuTilda, min: -0.00312863 max: 0.14 average: 0.0548177
ExecutionTime = 3.2 s  ClockTime = 4 s

Time = 53

smoothSolver:  Solving for Ux, Initial residual = 0.00252916, Final residual = 0.000173938, No Iterations 4
smoothSolver:  Solving for Uy, Initial residual = 0.0040113, Final residual = 0.000298773, No Iterations 4
GAMG:  Solving for p, Initial residual = 0.0059816, Final residual = 0.000517582, No Iterations 3
time step continuity errors : sum local = 0.00138613, global = 3.26108e-15, cumulative = 1.42699e-13
smoothSolver:  Solving for nuTilda, Initial residual = 0.00573852, Final residual = 0.000430525, No Iterations 4
bounding nuTilda, min: -0.00309277 max: 0.14 average: 0.0544472
ExecutionTime = 3.25 s  ClockTime = 4 s

Time = 54

smoothSolver:  Solving for Ux, Initial residual = 0.00249729, Final residual = 0.000171811, No Iterations 4
smoothSolver:  Solving for Uy, Initial residual = 0.00397974, Final residual = 0.000296314, No Iterations 4
GAMG:  Solving for p, Initial residual = 0.00583709, Final residual = 0.000468853, No Iterations 3
time step continuity errors : sum local = 0.001257, global = 3.10362e-15, cumulative = 1.45803e-13
smoothSolver:  Solving for nuTilda, Initial residual = 0.00564085, Final residual = 0.000423611, No Iterations 4
bounding nuTilda, min: -0.00305994 max: 0.14 average: 0.054084
ExecutionTime = 3.31 s  ClockTime = 4 s

Time = 55

smoothSolver:  Solving for Ux, Initial residual = 0.00245583, Final residual = 0.000169007, No Iterations 4
smoothSolver:  Solving for Uy, Initial residual = 0.00395227, Final residual = 0.000294171, No Iterations 4
GAMG:  Solving for p, Initial residual = 0.00549694, Final residual = 0.000536777, No Iterations 2
time step continuity errors : sum local = 0.00143939, global = 3.95038e-15, cumulative = 1.49753e-13
smoothSolver:  Solving for nuTilda, Initial residual = 0.0055461, Final residual = 0.000416893, No Iterations 4
bounding nuTilda, min: -0.00302781 max: 0.14 average: 0.0537281
ExecutionTime = 3.36 s  ClockTime = 4 s

forces wings output:
    sum of forces:
        pressure : (0.0654359 0.39359 -1.99465e-20)
        viscous  : (0.0206756 0.000517148 4.65544e-20)
        porous   : (0 0 0)
    sum of moments:
        pressure : (-0.00196795 0.000327179 0.0413011)
        viscous  : (-2.58574e-06 0.000103378 -0.000222113)
        porous   : (0 0 0)

Time = 56

smoothSolver:  Solving for Ux, Initial residual = 0.00241284, Final residual = 0.00016603, No Iterations 4
smoothSolver:  Solving for Uy, Initial residual = 0.00390704, Final residual = 0.000290938, No Iterations 4
GAMG:  Solving for p, Initial residual = 0.00540012, Final residual = 0.000305257, No Iterations 3
time step continuity errors : sum local = 0.000816577, global = 2.75756e-15, cumulative = 1.52511e-13
smoothSolver:  Solving for nuTilda, Initial residual = 0.00545449, Final residual = 0.000410384, No Iterations 4
bounding nuTilda, min: -0.00299621 max: 0.14 average: 0.053379
ExecutionTime = 3.41 s  ClockTime = 4 s

Time = 57

smoothSolver:  Solving for Ux, Initial residual = 0.00237111, Final residual = 0.000163206, No Iterations 4
smoothSolver:  Solving for Uy, Initial residual = 0.00385464, Final residual = 0.000287433, No Iterations 4
GAMG:  Solving for p, Initial residual = 0.00524095, Final residual = 0.000303306, No Iterations 3
time step continuity errors : sum local = 0.000813135, global = 3.43518e-15, cumulative = 1.55946e-13
smoothSolver:  Solving for nuTilda, Initial residual = 0.00536588, Final residual = 0.000404077, No Iterations 4
bounding nuTilda, min: -0.00296513 max: 0.14 average: 0.0530366
ExecutionTime = 3.47 s  ClockTime = 4 s

Time = 58

smoothSolver:  Solving for Ux, Initial residual = 0.00233439, Final residual = 0.00016077, No Iterations 4
smoothSolver:  Solving for Uy, Initial residual = 0.00380788, Final residual = 0.000284287, No Iterations 4
GAMG:  Solving for p, Initial residual = 0.00507528, Final residual = 0.000406398, No Iterations 3
time step continuity errors : sum local = 0.00108686, global = 1.31761e-15, cumulative = 1.57264e-13
smoothSolver:  Solving for nuTilda, Initial residual = 0.00528013, Final residual = 0.000397957, No Iterations 4
bounding nuTilda, min: -0.00293468 max: 0.14 average: 0.0527006
ExecutionTime = 3.52 s  ClockTime = 4 s

Time = 59

smoothSolver:  Solving for Ux, Initial residual = 0.00229918, Final residual = 0.000158458, No Iterations 4
smoothSolver:  Solving for Uy, Initial residual = 0.00377712, Final residual = 0.000282158, No Iterations 4
GAMG:  Solving for p, Initial residual = 0.00501116, Final residual = 0.000455595, No Iterations 2
time step continuity errors : sum local = 0.00121822, global = 3.34547e-15, cumulative = 1.60609e-13
smoothSolver:  Solving for nuTilda, Initial residual = 0.00519698, Final residual = 0.000392011, No Iterations 4
bounding nuTilda, min: -0.0029061 max: 0.14 average: 0.0523709
ExecutionTime = 3.57 s  ClockTime = 4 s

Time = 60

smoothSolver:  Solving for Ux, Initial residual = 0.00226893, Final residual = 0.000156419, No Iterations 4
smoothSolver:  Solving for Uy, Initial residual = 0.0037383, Final residual = 0.000279274, No Iterations 4
GAMG:  Solving for p, Initial residual = 0.00487565, Final residual = 0.000471768, No Iterations 2
time step continuity errors : sum local = 0.00126235, global = 3.31313e-15, cumulative = 1.63922e-13
smoothSolver:  Solving for nuTilda, Initial residual = 0.00511627, Final residual = 0.000386234, No Iterations 4
bounding nuTilda, min: -0.0028783 max: 0.14 average: 0.0520473
ExecutionTime = 3.62 s  ClockTime = 4 s

forces wings output:
    sum of forces:
        pressure : (0.0643166 0.398384 -1.9111e-20)
        viscous  : (0.0197076 0.000538253 4.44125e-20)
        porous   : (0 0 0)
    sum of moments:
        pressure : (-0.00199192 0.000321583 0.0413962)
        viscous  : (-2.69127e-06 9.85379e-05 -0.000210578)
        porous   : (0 0 0)

Time = 61

smoothSolver:  Solving for Ux, Initial residual = 0.00223889, Final residual = 0.000154364, No Iterations 4
smoothSolver:  Solving for Uy, Initial residual = 0.00371256, Final residual = 0.000277387, No Iterations 4
GAMG:  Solving for p, Initial residual = 0.00477856, Final residual = 0.000364351, No Iterations 3
time step continuity errors : sum local = 0.000976237, global = 5.47207e-15, cumulative = 1.69394e-13
smoothSolver:  Solving for nuTilda, Initial residual = 0.00503788, Final residual = 0.000380624, No Iterations 4
bounding nuTilda, min: -0.00284935 max: 0.14 average: 0.0517295
ExecutionTime = 3.68 s  ClockTime = 4 s

Time = 62

smoothSolver:  Solving for Ux, Initial residual = 0.00220689, Final residual = 0.000152195, No Iterations 4
smoothSolver:  Solving for Uy, Initial residual = 0.0037002, Final residual = 0.000276603, No Iterations 4
GAMG:  Solving for p, Initial residual = 0.00467206, Final residual = 0.000393417, No Iterations 2
time step continuity errors : sum local = 0.00105557, global = 4.8544e-15, cumulative = 1.74249e-13
smoothSolver:  Solving for nuTilda, Initial residual = 0.00496175, Final residual = 0.000375177, No Iterations 4
bounding nuTilda, min: -0.00282091 max: 0.14 average: 0.0514174
ExecutionTime = 3.73 s  ClockTime = 4 s

Time = 63

smoothSolver:  Solving for Ux, Initial residual = 0.00217624, Final residual = 0.000150127, No Iterations 4
smoothSolver:  Solving for Uy, Initial residual = 0.00366184, Final residual = 0.000274041, No Iterations 4
GAMG:  Solving for p, Initial residual = 0.00455693, Final residual = 0.000398826, No Iterations 2
time step continuity errors : sum local = 0.0010718, global = -3.18199e-16, cumulative = 1.7393e-13
smoothSolver:  Solving for nuTilda, Initial residual = 0.00488776, Final residual = 0.000369877, No Iterations 4
bounding nuTilda, min: -0.00279513 max: 0.14 average: 0.0511109
ExecutionTime = 3.78 s  ClockTime = 4 s

Time = 64

smoothSolver:  Solving for Ux, Initial residual = 0.00214716, Final residual = 0.000148116, No Iterations 4
smoothSolver:  Solving for Uy, Initial residual = 0.00362259, Final residual = 0.000271276, No Iterations 4
GAMG:  Solving for p, Initial residual = 0.0045172, Final residual = 0.000420389, No Iterations 2
time step continuity errors : sum local = 0.00113042, global = 1.45354e-15, cumulative = 1.75384e-13
smoothSolver:  Solving for nuTilda, Initial residual = 0.00481578, Final residual = 0.000364712, No Iterations 4
bounding nuTilda, min: -0.00276845 max: 0.14 average: 0.0508097
ExecutionTime = 3.84 s  ClockTime = 4 s

Time = 65

smoothSolver:  Solving for Ux, Initial residual = 0.0021167, Final residual = 0.000146118, No Iterations 4
smoothSolver:  Solving for Uy, Initial residual = 0.00358802, Final residual = 0.0002688, No Iterations 4
GAMG:  Solving for p, Initial residual = 0.00445517, Final residual = 0.000403362, No Iterations 2
time step continuity errors : sum local = 0.00108531, global = 2.76991e-15, cumulative = 1.78154e-13
smoothSolver:  Solving for nuTilda, Initial residual = 0.00474569, Final residual = 0.000359673, No Iterations 4
bounding nuTilda, min: -0.00274134 max: 0.14 average: 0.0505137
ExecutionTime = 3.89 s  ClockTime = 4 s

forces wings output:
    sum of forces:
        pressure : (0.0627234 0.401535 -1.88118e-20)
        viscous  : (0.0189601 0.000551512 4.44898e-20)
        porous   : (0 0 0)
    sum of moments:
        pressure : (-0.00200767 0.000313617 0.0410607)
        viscous  : (-2.75756e-06 9.48004e-05 -0.00020181)
        porous   : (0 0 0)

Time = 66

smoothSolver:  Solving for Ux, Initial residual = 0.00208628, Final residual = 0.000144104, No Iterations 4
smoothSolver:  Solving for Uy, Initial residual = 0.00355962, Final residual = 0.000266788, No Iterations 4
GAMG:  Solving for p, Initial residual = 0.00435636, Final residual = 0.000362698, No Iterations 2
time step continuity errors : sum local = 0.000976712, global = 1.99403e-15, cumulative = 1.80148e-13
smoothSolver:  Solving for nuTilda, Initial residual = 0.00467757, Final residual = 0.000354764, No Iterations 4
bounding nuTilda, min: -0.00271444 max: 0.14 average: 0.0502227
ExecutionTime = 3.94 s  ClockTime = 4 s

Time = 67

smoothSolver:  Solving for Ux, Initial residual = 0.00205602, Final residual = 0.000142075, No Iterations 4
smoothSolver:  Solving for Uy, Initial residual = 0.00353273, Final residual = 0.00026492, No Iterations 4
GAMG:  Solving for p, Initial residual = 0.00427846, Final residual = 0.000371372, No Iterations 2
time step continuity errors : sum local = 0.00100054, global = 1.31004e-15, cumulative = 1.81458e-13
smoothSolver:  Solving for nuTilda, Initial residual = 0.00461124, Final residual = 0.000349975, No Iterations 4
bounding nuTilda, min: -0.00268771 max: 0.14 average: 0.0499367
ExecutionTime = 3.99 s  ClockTime = 4 s

Time = 68

smoothSolver:  Solving for Ux, Initial residual = 0.00202696, Final residual = 0.000140141, No Iterations 4
smoothSolver:  Solving for Uy, Initial residual = 0.00350799, Final residual = 0.000263254, No Iterations 4
GAMG:  Solving for p, Initial residual = 0.00420582, Final residual = 0.000387113, No Iterations 2
time step continuity errors : sum local = 0.00104352, global = 4.10939e-15, cumulative = 1.85567e-13
smoothSolver:  Solving for nuTilda, Initial residual = 0.00454659, Final residual = 0.000345303, No Iterations 4
bounding nuTilda, min: -0.002661 max: 0.14 average: 0.0496554
ExecutionTime = 4.04 s  ClockTime = 4 s

Time = 69

smoothSolver:  Solving for Ux, Initial residual = 0.00200009, Final residual = 0.000138356, No Iterations 4
smoothSolver:  Solving for Uy, Initial residual = 0.00348323, Final residual = 0.000261567, No Iterations 4
GAMG:  Solving for p, Initial residual = 0.00413168, Final residual = 0.000369702, No Iterations 2
time step continuity errors : sum local = 0.000997616, global = 1.61045e-15, cumulative = 1.87178e-13
smoothSolver:  Solving for nuTilda, Initial residual = 0.00448355, Final residual = 0.00034075, No Iterations 4
bounding nuTilda, min: -0.00263382 max: 0.14 average: 0.0493788
ExecutionTime = 4.1 s  ClockTime = 4 s

Time = 70

smoothSolver:  Solving for Ux, Initial residual = 0.00197438, Final residual = 0.000136647, No Iterations 4
smoothSolver:  Solving for Uy, Initial residual = 0.00345936, Final residual = 0.000259932, No Iterations 4
GAMG:  Solving for p, Initial residual = 0.00404677, Final residual = 0.000346471, No Iterations 2
time step continuity errors : sum local = 0.000935944, global = 1.97803e-15, cumulative = 1.89156e-13
smoothSolver:  Solving for nuTilda, Initial residual = 0.00442216, Final residual = 0.000336315, No Iterations 4
bounding nuTilda, min: -0.00260701 max: 0.14 average: 0.0491066
ExecutionTime = 4.15 s  ClockTime = 5 s

forces wings output:
    sum of forces:
        pressure : (0.0618728 0.401593 -1.84521e-20)
        viscous  : (0.0183675 0.000561873 4.44489e-20)
        porous   : (0 0 0)
    sum of moments:
        pressure : (-0.00200797 0.000309364 0.0411782)
        viscous  : (-2.80936e-06 9.18374e-05 -0.000194758)
        porous   : (0 0 0)

Time = 71

smoothSolver:  Solving for Ux, Initial residual = 0.00194848, Final residual = 0.000134931, No Iterations 4
smoothSolver:  Solving for Uy, Initial residual = 0.00343655, Final residual = 0.000258381, No Iterations 4
GAMG:  Solving for p, Initial residual = 0.00397048, Final residual = 0.000322692, No Iterations 2
time step continuity errors : sum local = 0.000872821, global = 2.73291e-15, cumulative = 1.91889e-13
smoothSolver:  Solving for nuTilda, Initial residual = 0.00436231, Final residual = 0.000331986, No Iterations 4
bounding nuTilda, min: -0.0025807 max: 0.14 average: 0.0488388
ExecutionTime = 4.2 s  ClockTime = 5 s

Time = 72

smoothSolver:  Solving for Ux, Initial residual = 0.00192252, Final residual = 0.000133219, No Iterations 4
smoothSolver:  Solving for Uy, Initial residual = 0.00341399, Final residual = 0.000256845, No Iterations 4
GAMG:  Solving for p, Initial residual = 0.00389922, Final residual = 0.000233237, No Iterations 2
time step continuity errors : sum local = 0.00062589, global = 3.64902e-15, cumulative = 1.95538e-13
smoothSolver:  Solving for nuTilda, Initial residual = 0.00430399, Final residual = 0.000327757, No Iterations 4
bounding nuTilda, min: -0.00255483 max: 0.14 average: 0.0485753
ExecutionTime = 4.25 s  ClockTime = 5 s

Time = 73

smoothSolver:  Solving for Ux, Initial residual = 0.0018962, Final residual = 0.000131492, No Iterations 4
smoothSolver:  Solving for Uy, Initial residual = 0.00338855, Final residual = 0.000255045, No Iterations 4
GAMG:  Solving for p, Initial residual = 0.00384523, Final residual = 0.000333506, No Iterations 2
time step continuity errors : sum local = 0.000900055, global = 4.86589e-16, cumulative = 1.96024e-13
smoothSolver:  Solving for nuTilda, Initial residual = 0.00424728, Final residual = 0.000323633, No Iterations 4
bounding nuTilda, min: -0.00252866 max: 0.14 average: 0.0483159
ExecutionTime = 4.31 s  ClockTime = 5 s

Time = 74

smoothSolver:  Solving for Ux, Initial residual = 0.00187298, Final residual = 0.000129932, No Iterations 4
smoothSolver:  Solving for Uy, Initial residual = 0.00336126, Final residual = 0.000253137, No Iterations 4
GAMG:  Solving for p, Initial residual = 0.00379179, Final residual = 0.000346596, No Iterations 2
time step continuity errors : sum local = 0.000935502, global = 1.87571e-15, cumulative = 1.979e-13
smoothSolver:  Solving for nuTilda, Initial residual = 0.00419209, Final residual = 0.00031961, No Iterations 4
bounding nuTilda, min: -0.00250294 max: 0.14 average: 0.0480605
ExecutionTime = 4.37 s  ClockTime = 5 s

Time = 75

smoothSolver:  Solving for Ux, Initial residual = 0.00184955, Final residual = 0.000128354, No Iterations 4
smoothSolver:  Solving for Uy, Initial residual = 0.0033385, Final residual = 0.000251534, No Iterations 4
GAMG:  Solving for p, Initial residual = 0.00373869, Final residual = 0.000348328, No Iterations 2
time step continuity errors : sum local = 0.000940584, global = 2.76997e-15, cumulative = 2.0067e-13
smoothSolver:  Solving for nuTilda, Initial residual = 0.00413816, Final residual = 0.000315678, No Iterations 4
bounding nuTilda, min: -0.00247734 max: 0.14 average: 0.0478091
ExecutionTime = 4.42 s  ClockTime = 5 s

forces wings output:
    sum of forces:
        pressure : (0.0605727 0.402531 -1.7982e-20)
        viscous  : (0.0178788 0.000566898 4.35945e-20)
        porous   : (0 0 0)
    sum of moments:
        pressure : (-0.00201265 0.000302864 0.0408923)
        viscous  : (-2.83449e-06 8.93942e-05 -0.00018881)
        porous   : (0 0 0)

Time = 76

smoothSolver:  Solving for Ux, Initial residual = 0.00182403, Final residual = 0.000126669, No Iterations 4
smoothSolver:  Solving for Uy, Initial residual = 0.00332061, Final residual = 0.000250272, No Iterations 4
GAMG:  Solving for p, Initial residual = 0.00367283, Final residual = 0.000211178, No Iterations 2
time step continuity errors : sum local = 0.000568307, global = 2.76435e-15, cumulative = 2.03434e-13
smoothSolver:  Solving for nuTilda, Initial residual = 0.0040855, Final residual = 0.00031184, No Iterations 4
bounding nuTilda, min: -0.00245263 max: 0.14 average: 0.0475614
ExecutionTime = 4.47 s  ClockTime = 5 s

Time = 77

smoothSolver:  Solving for Ux, Initial residual = 0.00179862, Final residual = 0.000125008, No Iterations 4
smoothSolver:  Solving for Uy, Initial residual = 0.00329957, Final residual = 0.000248768, No Iterations 4
GAMG:  Solving for p, Initial residual = 0.00359714, Final residual = 0.000356665, No Iterations 2
time step continuity errors : sum local = 0.000960781, global = 4.27501e-15, cumulative = 2.07709e-13
smoothSolver:  Solving for nuTilda, Initial residual = 0.00403406, Final residual = 0.000308091, No Iterations 4
bounding nuTilda, min: -0.00242764 max: 0.14 average: 0.0473174
ExecutionTime = 4.52 s  ClockTime = 5 s

Time = 78

smoothSolver:  Solving for Ux, Initial residual = 0.00177556, Final residual = 0.000123491, No Iterations 4
smoothSolver:  Solving for Uy, Initial residual = 0.00327865, Final residual = 0.000247366, No Iterations 4
GAMG:  Solving for p, Initial residual = 0.00354597, Final residual = 0.000318747, No Iterations 2
time step continuity errors : sum local = 0.000858948, global = 3.90813e-15, cumulative = 2.11618e-13
smoothSolver:  Solving for nuTilda, Initial residual = 0.00398383, Final residual = 0.00030443, No Iterations 4
bounding nuTilda, min: -0.00240329 max: 0.14 average: 0.047077
ExecutionTime = 4.57 s  ClockTime = 5 s

Time = 79

smoothSolver:  Solving for Ux, Initial residual = 0.00175405, Final residual = 0.000122048, No Iterations 4
smoothSolver:  Solving for Uy, Initial residual = 0.00325745, Final residual = 0.000245905, No Iterations 4
GAMG:  Solving for p, Initial residual = 0.00348384, Final residual = 0.000279822, No Iterations 2
time step continuity errors : sum local = 0.000754948, global = 5.05674e-15, cumulative = 2.16674e-13
smoothSolver:  Solving for nuTilda, Initial residual = 0.0039348, Final residual = 0.000300856, No Iterations 4
bounding nuTilda, min: -0.0023795 max: 0.14 average: 0.0468402
ExecutionTime = 4.62 s  ClockTime = 5 s

Time = 80

smoothSolver:  Solving for Ux, Initial residual = 0.0017323, Final residual = 0.0001206, No Iterations 4
smoothSolver:  Solving for Uy, Initial residual = 0.0032379, Final residual = 0.000244525, No Iterations 4
GAMG:  Solving for p, Initial residual = 0.00341247, Final residual = 0.000268102, No Iterations 2
time step continuity errors : sum local = 0.000724346, global = 6.17978e-15, cumulative = 2.22854e-13
smoothSolver:  Solving for nuTilda, Initial residual = 0.00388693, Final residual = 0.000297362, No Iterations 4
bounding nuTilda, min: -0.00235706 max: 0.14 average: 0.0466067
ExecutionTime = 4.67 s  ClockTime = 5 s

forces wings output:
    sum of forces:
        pressure : (0.0597381 0.40193 -1.74245e-20)
        viscous  : (0.0174715 0.000569646 4.27487e-20)
        porous   : (0 0 0)
    sum of moments:
        pressure : (-0.00200965 0.00029869 0.0408262)
        viscous  : (-2.84823e-06 8.73573e-05 -0.000183733)
        porous   : (0 0 0)

Time = 81

smoothSolver:  Solving for Ux, Initial residual = 0.00171034, Final residual = 0.000119156, No Iterations 4
smoothSolver:  Solving for Uy, Initial residual = 0.00321887, Final residual = 0.000243157, No Iterations 4
GAMG:  Solving for p, Initial residual = 0.00335001, Final residual = 0.000261949, No Iterations 2
time step continuity errors : sum local = 0.000708622, global = 1.51056e-15, cumulative = 2.24365e-13
smoothSolver:  Solving for nuTilda, Initial residual = 0.00384023, Final residual = 0.000293944, No Iterations 4
bounding nuTilda, min: -0.00233495 max: 0.14 average: 0.0463766
ExecutionTime = 4.73 s  ClockTime = 5 s

Time = 82

smoothSolver:  Solving for Ux, Initial residual = 0.00168863, Final residual = 0.00011773, No Iterations 4
smoothSolver:  Solving for Uy, Initial residual = 0.00319912, Final residual = 0.000241747, No Iterations 4
GAMG:  Solving for p, Initial residual = 0.00329697, Final residual = 0.000262182, No Iterations 2
time step continuity errors : sum local = 0.000709868, global = 1.42707e-15, cumulative = 2.25792e-13
smoothSolver:  Solving for nuTilda, Initial residual = 0.00379468, Final residual = 0.000290611, No Iterations 4
bounding nuTilda, min: -0.00231307 max: 0.14 average: 0.0461497
ExecutionTime = 4.78 s  ClockTime = 5 s

Time = 83

smoothSolver:  Solving for Ux, Initial residual = 0.00166758, Final residual = 0.000116332, No Iterations 4
smoothSolver:  Solving for Uy, Initial residual = 0.00317791, Final residual = 0.000240265, No Iterations 4
GAMG:  Solving for p, Initial residual = 0.00324613, Final residual = 0.0002655, No Iterations 2
time step continuity errors : sum local = 0.000719274, global = 1.44398e-15, cumulative = 2.27236e-13
smoothSolver:  Solving for nuTilda, Initial residual = 0.00375016, Final residual = 0.000287354, No Iterations 4
bounding nuTilda, min: -0.00229143 max: 0.14 average: 0.045926
ExecutionTime = 4.83 s  ClockTime = 5 s

Time = 84

smoothSolver:  Solving for Ux, Initial residual = 0.00164687, Final residual = 0.00011495, No Iterations 4
smoothSolver:  Solving for Uy, Initial residual = 0.00315723, Final residual = 0.000238807, No Iterations 4
GAMG:  Solving for p, Initial residual = 0.0031992, Final residual = 0.000277927, No Iterations 2
time step continuity errors : sum local = 0.000752978, global = 3.12568e-15, cumulative = 2.30361e-13
smoothSolver:  Solving for nuTilda, Initial residual = 0.00370659, Final residual = 0.000284162, No Iterations 4
bounding nuTilda, min: -0.00227006 max: 0.14 average: 0.0457053
ExecutionTime = 4.89 s  ClockTime = 5 s

Time = 85

smoothSolver:  Solving for Ux, Initial residual = 0.00162621, Final residual = 0.000113576, No Iterations 4
smoothSolver:  Solving for Uy, Initial residual = 0.00313791, Final residual = 0.000237446, No Iterations 4
GAMG:  Solving for p, Initial residual = 0.00315273, Final residual = 0.000193381, No Iterations 2
time step continuity errors : sum local = 0.000520046, global = -1.58439e-15, cumulative = 2.28777e-13
smoothSolver:  Solving for nuTilda, Initial residual = 0.00366396, Final residual = 0.000281034, No Iterations 4
bounding nuTilda, min: -0.00224908 max: 0.14 average: 0.0454877
ExecutionTime = 4.94 s  ClockTime = 5 s

forces wings output:
    sum of forces:
        pressure : (0.0587114 0.401347 -1.69849e-20)
        viscous  : (0.0171207 0.000569714 4.20136e-20)
        porous   : (0 0 0)
    sum of moments:
        pressure : (-0.00200674 0.000293557 0.0405528)
        viscous  : (-2.84857e-06 8.56037e-05 -0.000179227)
        porous   : (0 0 0)

Time = 86

smoothSolver:  Solving for Ux, Initial residual = 0.0016057, Final residual = 0.000112233, No Iterations 4
smoothSolver:  Solving for Uy, Initial residual = 0.00311659, Final residual = 0.000235896, No Iterations 4
GAMG:  Solving for p, Initial residual = 0.00310271, Final residual = 0.000168622, No Iterations 3
time step continuity errors : sum local = 0.000453883, global = 3.11614e-15, cumulative = 2.31893e-13
smoothSolver:  Solving for nuTilda, Initial residual = 0.00362233, Final residual = 0.000277973, No Iterations 4
bounding nuTilda, min: -0.00222835 max: 0.14 average: 0.0452729
ExecutionTime = 4.99 s  ClockTime = 5 s

Time = 87

smoothSolver:  Solving for Ux, Initial residual = 0.00158622, Final residual = 0.000110946, No Iterations 4
smoothSolver:  Solving for Uy, Initial residual = 0.00310138, Final residual = 0.000234793, No Iterations 4
GAMG:  Solving for p, Initial residual = 0.00305112, Final residual = 0.000279103, No Iterations 2
time step continuity errors : sum local = 0.000751644, global = 5.78142e-15, cumulative = 2.37674e-13
smoothSolver:  Solving for nuTilda, Initial residual = 0.00358161, Final residual = 0.000274973, No Iterations 4
bounding nuTilda, min: -0.00220766 max: 0.14 average: 0.045061
ExecutionTime = 5.05 s  ClockTime = 5 s

Time = 88

smoothSolver:  Solving for Ux, Initial residual = 0.00156769, Final residual = 0.000109726, No Iterations 4
smoothSolver:  Solving for Uy, Initial residual = 0.00308308, Final residual = 0.000233531, No Iterations 4
GAMG:  Solving for p, Initial residual = 0.00300705, Final residual = 0.000257151, No Iterations 2
time step continuity errors : sum local = 0.000692398, global = 3.80393e-15, cumulative = 2.41478e-13
smoothSolver:  Solving for nuTilda, Initial residual = 0.00354182, Final residual = 0.000272036, No Iterations 4
bounding nuTilda, min: -0.00218731 max: 0.14 average: 0.0448518
ExecutionTime = 5.1 s  ClockTime = 5 s

Time = 89

smoothSolver:  Solving for Ux, Initial residual = 0.00154786, Final residual = 0.000108425, No Iterations 4
smoothSolver:  Solving for Uy, Initial residual = 0.00306776, Final residual = 0.000232455, No Iterations 4
GAMG:  Solving for p, Initial residual = 0.00295834, Final residual = 0.000234451, No Iterations 2
time step continuity errors : sum local = 0.000631878, global = 2.48718e-15, cumulative = 2.43966e-13
smoothSolver:  Solving for nuTilda, Initial residual = 0.00350294, Final residual = 0.00026916, No Iterations 4
bounding nuTilda, min: -0.00216737 max: 0.14 average: 0.0446454
ExecutionTime = 5.15 s  ClockTime = 6 s

Time = 90

smoothSolver:  Solving for Ux, Initial residual = 0.00152858, Final residual = 0.000107098, No Iterations 4
smoothSolver:  Solving for Uy, Initial residual = 0.00305374, Final residual = 0.000231387, No Iterations 4
GAMG:  Solving for p, Initial residual = 0.00293322, Final residual = 0.000172274, No Iterations 2
time step continuity errors : sum local = 0.000465272, global = 2.13635e-15, cumulative = 2.46102e-13
smoothSolver:  Solving for nuTilda, Initial residual = 0.00346488, Final residual = 0.000266345, No Iterations 4
bounding nuTilda, min: -0.00214799 max: 0.14 average: 0.0444416
ExecutionTime = 5.2 s  ClockTime = 6 s

forces wings output:
    sum of forces:
        pressure : (0.057677 0.400228 -1.66437e-20)
        viscous  : (0.0168156 0.000567919 4.1554e-20)
        porous   : (0 0 0)
    sum of moments:
        pressure : (-0.00200114 0.000288385 0.0403317)
        viscous  : (-2.8396e-06 8.4078e-05 -0.00017522)
        porous   : (0 0 0)

Time = 91

smoothSolver:  Solving for Ux, Initial residual = 0.00150901, Final residual = 0.000105857, No Iterations 4
smoothSolver:  Solving for Uy, Initial residual = 0.00303563, Final residual = 0.000230131, No Iterations 4
GAMG:  Solving for p, Initial residual = 0.00287532, Final residual = 0.000216263, No Iterations 2
time step continuity errors : sum local = 0.000584351, global = 4.21184e-16, cumulative = 2.46523e-13
smoothSolver:  Solving for nuTilda, Initial residual = 0.00342757, Final residual = 0.000263588, No Iterations 4
bounding nuTilda, min: -0.0021286 max: 0.14 average: 0.0442404
ExecutionTime = 5.26 s  ClockTime = 6 s

Time = 92

smoothSolver:  Solving for Ux, Initial residual = 0.00149159, Final residual = 0.000104726, No Iterations 4
smoothSolver:  Solving for Uy, Initial residual = 0.00301406, Final residual = 0.000228679, No Iterations 4
GAMG:  Solving for p, Initial residual = 0.00283297, Final residual = 0.00023931, No Iterations 2
time step continuity errors : sum local = 0.000647104, global = 2.45311e-15, cumulative = 2.48976e-13
smoothSolver:  Solving for nuTilda, Initial residual = 0.00339105, Final residual = 0.000260884, No Iterations 4
bounding nuTilda, min: -0.00210939 max: 0.14 average: 0.0440417
ExecutionTime = 5.31 s  ClockTime = 6 s

Time = 93

smoothSolver:  Solving for Ux, Initial residual = 0.00147507, Final residual = 0.000103621, No Iterations 4
smoothSolver:  Solving for Uy, Initial residual = 0.00299346, Final residual = 0.000227281, No Iterations 4
GAMG:  Solving for p, Initial residual = 0.002793, Final residual = 0.000254755, No Iterations 2
time step continuity errors : sum local = 0.000689296, global = 9.10526e-16, cumulative = 2.49887e-13
smoothSolver:  Solving for nuTilda, Initial residual = 0.00335532, Final residual = 0.000258233, No Iterations 4
bounding nuTilda, min: -0.00209036 max: 0.14 average: 0.0438455
ExecutionTime = 5.36 s  ClockTime = 6 s

Time = 94

smoothSolver:  Solving for Ux, Initial residual = 0.00145759, Final residual = 0.000102444, No Iterations 4
smoothSolver:  Solving for Uy, Initial residual = 0.0029787, Final residual = 0.000226215, No Iterations 4
GAMG:  Solving for p, Initial residual = 0.00276025, Final residual = 0.000273426, No Iterations 2
time step continuity errors : sum local = 0.000739621, global = 1.92475e-15, cumulative = 2.51812e-13
smoothSolver:  Solving for nuTilda, Initial residual = 0.00332022, Final residual = 0.000255629, No Iterations 4
bounding nuTilda, min: -0.00207156 max: 0.14 average: 0.0436516
ExecutionTime = 5.41 s  ClockTime = 6 s

Time = 95

smoothSolver:  Solving for Ux, Initial residual = 0.00143815, Final residual = 0.000101154, No Iterations 4
smoothSolver:  Solving for Uy, Initial residual = 0.0029675, Final residual = 0.000225392, No Iterations 4
GAMG:  Solving for p, Initial residual = 0.00272416, Final residual = 0.000163117, No Iterations 2
time step continuity errors : sum local = 0.000439579, global = 3.86163e-15, cumulative = 2.55673e-13
smoothSolver:  Solving for nuTilda, Initial residual = 0.00328568, Final residual = 0.000253068, No Iterations 4
bounding nuTilda, min: -0.0020532 max: 0.14 average: 0.0434601
ExecutionTime = 5.46 s  ClockTime = 6 s

forces wings output:
    sum of forces:
        pressure : (0.0564769 0.399657 -1.62491e-20)
        viscous  : (0.0165444 0.000564769 4.09767e-20)
        porous   : (0 0 0)
    sum of moments:
        pressure : (-0.00199829 0.000282385 0.0399956)
        viscous  : (-2.82384e-06 8.27221e-05 -0.000171525)
        porous   : (0 0 0)

Time = 96

smoothSolver:  Solving for Ux, Initial residual = 0.00142032, Final residual = 9.9986e-05, No Iterations 4
smoothSolver:  Solving for Uy, Initial residual = 0.00294863, Final residual = 0.000224011, No Iterations 4
GAMG:  Solving for p, Initial residual = 0.00266792, Final residual = 0.000222873, No Iterations 3
time step continuity errors : sum local = 0.000600813, global = 2.75685e-15, cumulative = 2.5843e-13
smoothSolver:  Solving for nuTilda, Initial residual = 0.00325184, Final residual = 0.000250557, No Iterations 4
bounding nuTilda, min: -0.00203526 max: 0.14 average: 0.0432708
ExecutionTime = 5.52 s  ClockTime = 6 s

Time = 97

smoothSolver:  Solving for Ux, Initial residual = 0.0014018, Final residual = 9.87699e-05, No Iterations 4
smoothSolver:  Solving for Uy, Initial residual = 0.00293696, Final residual = 0.000223209, No Iterations 4
GAMG:  Solving for p, Initial residual = 0.00263219, Final residual = 0.000213791, No Iterations 2
time step continuity errors : sum local = 0.000576221, global = 6.00873e-15, cumulative = 2.64439e-13
smoothSolver:  Solving for nuTilda, Initial residual = 0.00321874, Final residual = 0.000248091, No Iterations 4
bounding nuTilda, min: -0.00201689 max: 0.14 average: 0.0430838
ExecutionTime = 5.57 s  ClockTime = 6 s

Time = 98

smoothSolver:  Solving for Ux, Initial residual = 0.00138689, Final residual = 9.77809e-05, No Iterations 4
smoothSolver:  Solving for Uy, Initial residual = 0.00291333, Final residual = 0.000221669, No Iterations 4
GAMG:  Solving for p, Initial residual = 0.00257479, Final residual = 0.000210809, No Iterations 2
time step continuity errors : sum local = 0.000568637, global = -4.39467e-16, cumulative = 2.63999e-13
smoothSolver:  Solving for nuTilda, Initial residual = 0.0031863, Final residual = 0.000245666, No Iterations 4
bounding nuTilda, min: -0.00199908 max: 0.14 average: 0.042899
ExecutionTime = 5.62 s  ClockTime = 6 s

Time = 99

smoothSolver:  Solving for Ux, Initial residual = 0.00137256, Final residual = 9.68188e-05, No Iterations 4
smoothSolver:  Solving for Uy, Initial residual = 0.00289603, Final residual = 0.000220483, No Iterations 4
GAMG:  Solving for p, Initial residual = 0.00253888, Final residual = 0.00021633, No Iterations 2
time step continuity errors : sum local = 0.000584422, global = 3.8848e-15, cumulative = 2.67884e-13
smoothSolver:  Solving for nuTilda, Initial residual = 0.0031545, Final residual = 0.000243282, No Iterations 4
bounding nuTilda, min: -0.00198152 max: 0.14 average: 0.0427163
ExecutionTime = 5.67 s  ClockTime = 6 s

Time = 100

smoothSolver:  Solving for Ux, Initial residual = 0.00135681, Final residual = 9.57663e-05, No Iterations 4
smoothSolver:  Solving for Uy, Initial residual = 0.0028872, Final residual = 0.000219814, No Iterations 4
GAMG:  Solving for p, Initial residual = 0.00250818, Final residual = 0.000210737, No Iterations 2
time step continuity errors : sum local = 0.000570039, global = 2.21979e-15, cumulative = 2.70104e-13
smoothSolver:  Solving for nuTilda, Initial residual = 0.00312328, Final residual = 0.000240938, No Iterations 4
bounding nuTilda, min: -0.00196422 max: 0.14 average: 0.0425357
ExecutionTime = 5.83 s  ClockTime = 6 s

forces wings output:
    sum of forces:
        pressure : (0.0553308 0.399108 -1.60486e-20)
        viscous  : (0.0163011 0.000560584 4.10325e-20)
        porous   : (0 0 0)
    sum of moments:
        pressure : (-0.00199554 0.000276654 0.0396828)
        viscous  : (-2.80292e-06 8.15056e-05 -0.000168143)
        porous   : (0 0 0)

Time = 101

smoothSolver:  Solving for Ux, Initial residual = 0.00133917, Final residual = 9.46017e-05, No Iterations 4
smoothSolver:  Solving for Uy, Initial residual = 0.00287896, Final residual = 0.000219159, No Iterations 4
GAMG:  Solving for p, Initial residual = 0.00246746, Final residual = 0.000149629, No Iterations 2
time step continuity errors : sum local = 0.000402891, global = 1.24203e-15, cumulative = 2.71346e-13
smoothSolver:  Solving for nuTilda, Initial residual = 0.00309255, Final residual = 0.000238632, No Iterations 4
bounding nuTilda, min: -0.00194726 max: 0.14 average: 0.0423571
ExecutionTime = 5.89 s  ClockTime = 6 s

Time = 102

smoothSolver:  Solving for Ux, Initial residual = 0.00132332, Final residual = 9.3561e-05, No Iterations 4
smoothSolver:  Solving for Uy, Initial residual = 0.00286036, Final residual = 0.000217826, No Iterations 4
GAMG:  Solving for p, Initial residual = 0.00242329, Final residual = 0.000238439, No Iterations 2
time step continuity errors : sum local = 0.000642699, global = 5.0557e-16, cumulative = 2.71851e-13
smoothSolver:  Solving for nuTilda, Initial residual = 0.00306228, Final residual = 0.000236363, No Iterations 4
bounding nuTilda, min: -0.00193035 max: 0.14 average: 0.0421805
ExecutionTime = 5.94 s  ClockTime = 6 s

Time = 103

smoothSolver:  Solving for Ux, Initial residual = 0.00130817, Final residual = 9.25464e-05, No Iterations 4
smoothSolver:  Solving for Uy, Initial residual = 0.00284342, Final residual = 0.00021673, No Iterations 4
GAMG:  Solving for p, Initial residual = 0.00239224, Final residual = 0.000208342, No Iterations 3
time step continuity errors : sum local = 0.00056153, global = 2.3473e-15, cumulative = 2.74199e-13
smoothSolver:  Solving for nuTilda, Initial residual = 0.00303242, Final residual = 0.000234128, No Iterations 4
bounding nuTilda, min: -0.00191385 max: 0.14 average: 0.0420059
ExecutionTime = 5.99 s  ClockTime = 6 s

Time = 104

smoothSolver:  Solving for Ux, Initial residual = 0.00129169, Final residual = 9.14506e-05, No Iterations 4
smoothSolver:  Solving for Uy, Initial residual = 0.00283738, Final residual = 0.000216268, No Iterations 4
GAMG:  Solving for p, Initial residual = 0.00235884, Final residual = 0.000187857, No Iterations 2
time step continuity errors : sum local = 0.00050659, global = 3.47022e-15, cumulative = 2.77669e-13
smoothSolver:  Solving for nuTilda, Initial residual = 0.00300301, Final residual = 0.000231933, No Iterations 4
bounding nuTilda, min: -0.00189704 max: 0.14 average: 0.0418332
ExecutionTime = 6.04 s  ClockTime = 6 s

Time = 105

smoothSolver:  Solving for Ux, Initial residual = 0.00127847, Final residual = 9.05648e-05, No Iterations 4
smoothSolver:  Solving for Uy, Initial residual = 0.00281979, Final residual = 0.000215105, No Iterations 4
GAMG:  Solving for p, Initial residual = 0.00231271, Final residual = 0.000184818, No Iterations 2
time step continuity errors : sum local = 0.000498901, global = 5.82669e-15, cumulative = 2.83496e-13
smoothSolver:  Solving for nuTilda, Initial residual = 0.00297408, Final residual = 0.000229775, No Iterations 4
bounding nuTilda, min: -0.00188073 max: 0.14 average: 0.0416623
ExecutionTime = 6.09 s  ClockTime = 6 s

forces wings output:
    sum of forces:
        pressure : (0.0543595 0.39828 -1.57568e-20)
        viscous  : (0.0160793 0.000555906 4.05761e-20)
        porous   : (0 0 0)
    sum of moments:
        pressure : (-0.0019914 0.000271797 0.0394123)
        viscous  : (-2.77953e-06 8.03963e-05 -0.000164935)
        porous   : (0 0 0)

Time = 106

smoothSolver:  Solving for Ux, Initial residual = 0.00126539, Final residual = 8.96942e-05, No Iterations 4
smoothSolver:  Solving for Uy, Initial residual = 0.00280551, Final residual = 0.000214133, No Iterations 4
GAMG:  Solving for p, Initial residual = 0.00228082, Final residual = 0.000191754, No Iterations 2
time step continuity errors : sum local = 0.000518192, global = 3.8022e-15, cumulative = 2.87298e-13
smoothSolver:  Solving for nuTilda, Initial residual = 0.00294568, Final residual = 0.000227655, No Iterations 4
bounding nuTilda, min: -0.00186465 max: 0.14 average: 0.0414933
ExecutionTime = 6.15 s  ClockTime = 7 s

Time = 107

smoothSolver:  Solving for Ux, Initial residual = 0.00125159, Final residual = 8.87763e-05, No Iterations 4
smoothSolver:  Solving for Uy, Initial residual = 0.00279487, Final residual = 0.000213391, No Iterations 4
GAMG:  Solving for p, Initial residual = 0.00224911, Final residual = 0.000191274, No Iterations 2
time step continuity errors : sum local = 0.000517354, global = 5.64764e-16, cumulative = 2.87863e-13
smoothSolver:  Solving for nuTilda, Initial residual = 0.0029178, Final residual = 0.000225572, No Iterations 4
bounding nuTilda, min: -0.0018488 max: 0.14 average: 0.0413261
ExecutionTime = 6.2 s  ClockTime = 7 s

Time = 108

smoothSolver:  Solving for Ux, Initial residual = 0.00123704, Final residual = 8.78152e-05, No Iterations 4
smoothSolver:  Solving for Uy, Initial residual = 0.00278534, Final residual = 0.000212697, No Iterations 4
GAMG:  Solving for p, Initial residual = 0.00221164, Final residual = 0.000189895, No Iterations 2
time step continuity errors : sum local = 0.00051377, global = 4.60741e-15, cumulative = 2.9247e-13
smoothSolver:  Solving for nuTilda, Initial residual = 0.00289044, Final residual = 0.000223522, No Iterations 4
bounding nuTilda, min: -0.00183316 max: 0.14 average: 0.0411606
ExecutionTime = 6.25 s  ClockTime = 7 s

Time = 109

smoothSolver:  Solving for Ux, Initial residual = 0.00122301, Final residual = 8.68856e-05, No Iterations 4
smoothSolver:  Solving for Uy, Initial residual = 0.00277402, Final residual = 0.000211906, No Iterations 4
GAMG:  Solving for p, Initial residual = 0.00217498, Final residual = 0.00018816, No Iterations 2
time step continuity errors : sum local = 0.000509204, global = 3.79371e-15, cumulative = 2.96264e-13
smoothSolver:  Solving for nuTilda, Initial residual = 0.00286354, Final residual = 0.000221503, No Iterations 4
bounding nuTilda, min: -0.00181768 max: 0.14 average: 0.0409969
ExecutionTime = 6.3 s  ClockTime = 7 s

Time = 110

smoothSolver:  Solving for Ux, Initial residual = 0.00120986, Final residual = 8.60131e-05, No Iterations 4
smoothSolver:  Solving for Uy, Initial residual = 0.00276141, Final residual = 0.000211064, No Iterations 4
GAMG:  Solving for p, Initial residual = 0.0021423, Final residual = 0.000187197, No Iterations 2
time step continuity errors : sum local = 0.000506796, global = 2.23637e-15, cumulative = 2.985e-13
smoothSolver:  Solving for nuTilda, Initial residual = 0.00283707, Final residual = 0.000219511, No Iterations 4
bounding nuTilda, min: -0.00180236 max: 0.14 average: 0.0408348
ExecutionTime = 6.35 s  ClockTime = 7 s

forces wings output:
    sum of forces:
        pressure : (0.0532873 0.398091 -1.56382e-20)
        viscous  : (0.015873 0.000549655 4.06025e-20)
        porous   : (0 0 0)
    sum of moments:
        pressure : (-0.00199046 0.000266436 0.0390984)
        viscous  : (-2.74828e-06 7.93649e-05 -0.000161906)
        porous   : (0 0 0)

Time = 111

smoothSolver:  Solving for Ux, Initial residual = 0.00119706, Final residual = 8.51678e-05, No Iterations 4
smoothSolver:  Solving for Uy, Initial residual = 0.00274992, Final residual = 0.000210287, No Iterations 4
GAMG:  Solving for p, Initial residual = 0.002112, Final residual = 0.000136073, No Iterations 2
time step continuity errors : sum local = 0.000365531, global = 3.23736e-15, cumulative = 3.01737e-13
smoothSolver:  Solving for nuTilda, Initial residual = 0.00281097, Final residual = 0.000217544, No Iterations 4
bounding nuTilda, min: -0.00178728 max: 0.14 average: 0.0406744
ExecutionTime = 6.41 s  ClockTime = 7 s

Time = 112

smoothSolver:  Solving for Ux, Initial residual = 0.0011845, Final residual = 8.43398e-05, No Iterations 4
smoothSolver:  Solving for Uy, Initial residual = 0.00273489, Final residual = 0.00020923, No Iterations 4
GAMG:  Solving for p, Initial residual = 0.00208048, Final residual = 0.000193082, No Iterations 3
time step continuity errors : sum local = 0.000521291, global = 1.87042e-15, cumulative = 3.03608e-13
smoothSolver:  Solving for nuTilda, Initial residual = 0.00278526, Final residual = 0.000215606, No Iterations 4
bounding nuTilda, min: -0.00177242 max: 0.14 average: 0.0405157
[...]
time step continuity errors : sum local = 0.000143105, global = 2.00337e-15, cumulative = 1.23095e-12
smoothSolver:  Solving for nuTilda, Initial residual = 0.000191908, Final residual = 1.48332e-05, No Iterations 4
bounding nuTilda, min: -0.00039258 max: 0.14 average: 0.017815
ExecutionTime = 26.55 s  ClockTime = 27 s

Time = 474

smoothSolver:  Solving for Ux, Initial residual = 0.000388267, Final residual = 2.84529e-05, No Iterations 4
smoothSolver:  Solving for Uy, Initial residual = 0.000647643, Final residual = 5.13399e-05, No Iterations 4
GAMG:  Solving for p, Initial residual = 0.00058081, Final residual = 5.12484e-05, No Iterations 2
time step continuity errors : sum local = 0.000139413, global = 4.18198e-15, cumulative = 1.23513e-12
smoothSolver:  Solving for nuTilda, Initial residual = 0.000190322, Final residual = 1.47089e-05, No Iterations 4
bounding nuTilda, min: -0.00039183 max: 0.14 average: 0.0177895
ExecutionTime = 26.6 s  ClockTime = 27 s

Time = 475

smoothSolver:  Solving for Ux, Initial residual = 0.000385979, Final residual = 2.82668e-05, No Iterations 4
smoothSolver:  Solving for Uy, Initial residual = 0.000645246, Final residual = 5.11387e-05, No Iterations 4
GAMG:  Solving for p, Initial residual = 0.000579187, Final residual = 5.57937e-05, No Iterations 2
time step continuity errors : sum local = 0.000151776, global = -6.11372e-16, cumulative = 1.23452e-12
smoothSolver:  Solving for nuTilda, Initial residual = 0.000188747, Final residual = 1.45855e-05, No Iterations 4
bounding nuTilda, min: -0.000390967 max: 0.14 average: 0.0177642
ExecutionTime = 26.65 s  ClockTime = 27 s

forces wings output:
    sum of forces:
        pressure : (0.0241305 0.589986 -5.49751e-21)
        viscous  : (0.0120808 0.00035666 2.38278e-20)
        porous   : (0 0 0)
    sum of moments:
        pressure : (-0.00294993 0.000120653 0.040236)
        viscous  : (-1.7833e-06 6.04038e-05 -9.87457e-05)
        porous   : (0 0 0)

Time = 476

smoothSolver:  Solving for Ux, Initial residual = 0.000383919, Final residual = 2.80976e-05, No Iterations 4
smoothSolver:  Solving for Uy, Initial residual = 0.000642812, Final residual = 5.0924e-05, No Iterations 4
GAMG:  Solving for p, Initial residual = 0.000579059, Final residual = 5.46295e-05, No Iterations 3
time step continuity errors : sum local = 0.000148924, global = 3.10982e-15, cumulative = 1.23763e-12
smoothSolver:  Solving for nuTilda, Initial residual = 0.000187185, Final residual = 1.44632e-05, No Iterations 4
bounding nuTilda, min: -0.000389972 max: 0.14 average: 0.0177389
ExecutionTime = 26.71 s  ClockTime = 27 s

Time = 477

smoothSolver:  Solving for Ux, Initial residual = 0.000382691, Final residual = 2.79922e-05, No Iterations 4
smoothSolver:  Solving for Uy, Initial residual = 0.000638762, Final residual = 5.05581e-05, No Iterations 4
GAMG:  Solving for p, Initial residual = 0.000579781, Final residual = 5.64342e-05, No Iterations 2
time step continuity errors : sum local = 0.000153784, global = 2.33706e-15, cumulative = 1.23997e-12
smoothSolver:  Solving for nuTilda, Initial residual = 0.000185641, Final residual = 1.43417e-05, No Iterations 4
bounding nuTilda, min: -0.000389239 max: 0.14 average: 0.0177138
ExecutionTime = 26.76 s  ClockTime = 27 s

Time = 478

smoothSolver:  Solving for Ux, Initial residual = 0.000380394, Final residual = 2.78093e-05, No Iterations 4
smoothSolver:  Solving for Uy, Initial residual = 0.000635557, Final residual = 5.03022e-05, No Iterations 4
GAMG:  Solving for p, Initial residual = 0.000579499, Final residual = 3.71964e-05, No Iterations 4
time step continuity errors : sum local = 0.000101779, global = 3.28901e-15, cumulative = 1.24326e-12
smoothSolver:  Solving for nuTilda, Initial residual = 0.000184104, Final residual = 1.42214e-05, No Iterations 4
bounding nuTilda, min: -0.000388319 max: 0.14 average: 0.0176887
ExecutionTime = 26.82 s  ClockTime = 27 s

Time = 479

smoothSolver:  Solving for Ux, Initial residual = 0.000377934, Final residual = 2.76189e-05, No Iterations 4
smoothSolver:  Solving for Uy, Initial residual = 0.000628888, Final residual = 4.98092e-05, No Iterations 4
GAMG:  Solving for p, Initial residual = 0.00057619, Final residual = 5.22278e-05, No Iterations 2
time step continuity errors : sum local = 0.000142048, global = 5.29334e-15, cumulative = 1.24855e-12
smoothSolver:  Solving for nuTilda, Initial residual = 0.000182575, Final residual = 1.41016e-05, No Iterations 4
bounding nuTilda, min: -0.000387592 max: 0.14 average: 0.0176637
ExecutionTime = 26.87 s  ClockTime = 27 s

Time = 480

smoothSolver:  Solving for Ux, Initial residual = 0.000375335, Final residual = 2.74133e-05, No Iterations 4
smoothSolver:  Solving for Uy, Initial residual = 0.000626048, Final residual = 4.95838e-05, No Iterations 4
GAMG:  Solving for p, Initial residual = 0.000573931, Final residual = 5.61179e-05, No Iterations 2
time step continuity errors : sum local = 0.000152735, global = 1.95757e-15, cumulative = 1.25051e-12
smoothSolver:  Solving for nuTilda, Initial residual = 0.000181056, Final residual = 1.39826e-05, No Iterations 4
bounding nuTilda, min: -0.000386758 max: 0.14 average: 0.0176389
ExecutionTime = 26.92 s  ClockTime = 27 s

forces wings output:
    sum of forces:
        pressure : (0.0237304 0.591376 -5.42367e-21)
        viscous  : (0.0120735 0.000358691 2.37771e-20)
        porous   : (0 0 0)
    sum of moments:
        pressure : (-0.00295688 0.000118652 0.0401966)
        viscous  : (-1.79345e-06 6.03677e-05 -9.88118e-05)
        porous   : (0 0 0)

Time = 481

smoothSolver:  Solving for Ux, Initial residual = 0.000373011, Final residual = 2.72249e-05, No Iterations 4
smoothSolver:  Solving for Uy, Initial residual = 0.000623326, Final residual = 4.93537e-05, No Iterations 4
GAMG:  Solving for p, Initial residual = 0.000572878, Final residual = 5.66454e-05, No Iterations 4
time step continuity errors : sum local = 0.000154034, global = 2.15926e-15, cumulative = 1.25267e-12
smoothSolver:  Solving for nuTilda, Initial residual = 0.00017955, Final residual = 1.38645e-05, No Iterations 4
bounding nuTilda, min: -0.000385818 max: 0.14 average: 0.0176141
ExecutionTime = 26.98 s  ClockTime = 27 s

Time = 482

smoothSolver:  Solving for Ux, Initial residual = 0.000371064, Final residual = 2.70566e-05, No Iterations 4
smoothSolver:  Solving for Uy, Initial residual = 0.000617559, Final residual = 4.89049e-05, No Iterations 4
GAMG:  Solving for p, Initial residual = 0.000572498, Final residual = 5.59255e-05, No Iterations 2
time step continuity errors : sum local = 0.000152171, global = 1.78014e-15, cumulative = 1.25445e-12
smoothSolver:  Solving for nuTilda, Initial residual = 0.000178055, Final residual = 1.3747e-05, No Iterations 4
bounding nuTilda, min: -0.000385071 max: 0.14 average: 0.0175895
ExecutionTime = 27.03 s  ClockTime = 27 s

Time = 483

smoothSolver:  Solving for Ux, Initial residual = 0.000369032, Final residual = 2.68865e-05, No Iterations 4
smoothSolver:  Solving for Uy, Initial residual = 0.000615346, Final residual = 4.87079e-05, No Iterations 4
GAMG:  Solving for p, Initial residual = 0.000570723, Final residual = 4.88629e-05, No Iterations 3
time step continuity errors : sum local = 0.000132896, global = 2.99442e-15, cumulative = 1.25744e-12
smoothSolver:  Solving for nuTilda, Initial residual = 0.00017657, Final residual = 1.36306e-05, No Iterations 4
bounding nuTilda, min: -0.00038411 max: 0.14 average: 0.0175649
ExecutionTime = 27.08 s  ClockTime = 27 s

Time = 484

smoothSolver:  Solving for Ux, Initial residual = 0.000367731, Final residual = 2.67674e-05, No Iterations 4
smoothSolver:  Solving for Uy, Initial residual = 0.000612164, Final residual = 4.84167e-05, No Iterations 4
GAMG:  Solving for p, Initial residual = 0.000571863, Final residual = 5.14939e-05, No Iterations 2
time step continuity errors : sum local = 0.00013999, global = 2.63679e-15, cumulative = 1.26008e-12
smoothSolver:  Solving for nuTilda, Initial residual = 0.000175098, Final residual = 1.35148e-05, No Iterations 4
bounding nuTilda, min: -0.000383406 max: 0.14 average: 0.0175404
ExecutionTime = 27.13 s  ClockTime = 28 s

Time = 485

smoothSolver:  Solving for Ux, Initial residual = 0.000365392, Final residual = 2.65777e-05, No Iterations 4
smoothSolver:  Solving for Uy, Initial residual = 0.000609447, Final residual = 4.82002e-05, No Iterations 4
GAMG:  Solving for p, Initial residual = 0.000574839, Final residual = 4.85858e-05, No Iterations 4
time step continuity errors : sum local = 0.000132599, global = 2.71136e-15, cumulative = 1.26279e-12
smoothSolver:  Solving for nuTilda, Initial residual = 0.000173634, Final residual = 1.33999e-05, No Iterations 4
bounding nuTilda, min: -0.000382481 max: 0.14 average: 0.0175161
ExecutionTime = 27.19 s  ClockTime = 28 s

forces wings output:
    sum of forces:
        pressure : (0.0232905 0.592752 -5.37932e-21)
        viscous  : (0.0120669 0.000360911 2.38121e-20)
        porous   : (0 0 0)
    sum of moments:
        pressure : (-0.00296376 0.000116452 0.0401455)
        viscous  : (-1.80456e-06 6.03345e-05 -9.8893e-05)
        porous   : (0 0 0)

Time = 486

smoothSolver:  Solving for Ux, Initial residual = 0.000363262, Final residual = 2.64081e-05, No Iterations 4
smoothSolver:  Solving for Uy, Initial residual = 0.000603543, Final residual = 4.77517e-05, No Iterations 4
GAMG:  Solving for p, Initial residual = 0.000575112, Final residual = 5.04902e-05, No Iterations 2
time step continuity errors : sum local = 0.000137473, global = 2.78849e-15, cumulative = 1.26558e-12
smoothSolver:  Solving for nuTilda, Initial residual = 0.000172178, Final residual = 1.32857e-05, No Iterations 4
bounding nuTilda, min: -0.000381755 max: 0.14 average: 0.0174918
ExecutionTime = 27.25 s  ClockTime = 28 s

Time = 487

smoothSolver:  Solving for Ux, Initial residual = 0.000360885, Final residual = 2.62158e-05, No Iterations 4
smoothSolver:  Solving for Uy, Initial residual = 0.000601163, Final residual = 4.75502e-05, No Iterations 4
GAMG:  Solving for p, Initial residual = 0.000575217, Final residual = 5.67753e-05, No Iterations 2
time step continuity errors : sum local = 0.000154554, global = 2.48584e-15, cumulative = 1.26807e-12
smoothSolver:  Solving for nuTilda, Initial residual = 0.000170733, Final residual = 1.31722e-05, No Iterations 4
bounding nuTilda, min: -0.000380915 max: 0.14 average: 0.0174676
ExecutionTime = 27.3 s  ClockTime = 28 s

Time = 488

smoothSolver:  Solving for Ux, Initial residual = 0.000358813, Final residual = 2.60444e-05, No Iterations 4
smoothSolver:  Solving for Uy, Initial residual = 0.000598848, Final residual = 4.73417e-05, No Iterations 4
GAMG:  Solving for p, Initial residual = 0.000576702, Final residual = 5.31335e-05, No Iterations 4
time step continuity errors : sum local = 0.000144997, global = 3.01636e-15, cumulative = 1.27108e-12
smoothSolver:  Solving for nuTilda, Initial residual = 0.000169301, Final residual = 1.306e-05, No Iterations 4
bounding nuTilda, min: -0.000379968 max: 0.14 average: 0.0174435
ExecutionTime = 27.35 s  ClockTime = 28 s

Time = 489

smoothSolver:  Solving for Ux, Initial residual = 0.000357099, Final residual = 2.58908e-05, No Iterations 4
smoothSolver:  Solving for Uy, Initial residual = 0.00059334, Final residual = 4.69083e-05, No Iterations 4
GAMG:  Solving for p, Initial residual = 0.000576815, Final residual = 5.5247e-05, No Iterations 2
time step continuity errors : sum local = 0.000150451, global = 3.11061e-15, cumulative = 1.27419e-12
smoothSolver:  Solving for nuTilda, Initial residual = 0.000167879, Final residual = 1.29482e-05, No Iterations 4
bounding nuTilda, min: -0.000379258 max: 0.14 average: 0.0174195
ExecutionTime = 27.41 s  ClockTime = 28 s

Time = 490

smoothSolver:  Solving for Ux, Initial residual = 0.000355045, Final residual = 2.572e-05, No Iterations 4
smoothSolver:  Solving for Uy, Initial residual = 0.000591168, Final residual = 4.67191e-05, No Iterations 4
GAMG:  Solving for p, Initial residual = 0.000575067, Final residual = 5.63674e-05, No Iterations 2
time step continuity errors : sum local = 0.000153497, global = 2.5841e-15, cumulative = 1.27678e-12
smoothSolver:  Solving for nuTilda, Initial residual = 0.000166465, Final residual = 1.28375e-05, No Iterations 4
bounding nuTilda, min: -0.000378445 max: 0.14 average: 0.0173956
ExecutionTime = 27.46 s  ClockTime = 28 s

forces wings output:
    sum of forces:
        pressure : (0.0229573 0.593797 -5.35578e-21)
        viscous  : (0.01206 0.000363345 2.38432e-20)
        porous   : (0 0 0)
    sum of moments:
        pressure : (-0.00296898 0.000114786 0.0401098)
        viscous  : (-1.81672e-06 6.03e-05 -9.89773e-05)
        porous   : (0 0 0)

Time = 491

smoothSolver:  Solving for Ux, Initial residual = 0.000352977, Final residual = 2.55532e-05, No Iterations 4
smoothSolver:  Solving for Uy, Initial residual = 0.00058858, Final residual = 4.64977e-05, No Iterations 4
GAMG:  Solving for p, Initial residual = 0.000576362, Final residual = 3.65349e-05, No Iterations 4
time step continuity errors : sum local = 9.99703e-05, global = 6.60435e-15, cumulative = 1.28338e-12
smoothSolver:  Solving for nuTilda, Initial residual = 0.000165063, Final residual = 1.27277e-05, No Iterations 4
bounding nuTilda, min: -0.000377504 max: 0.14 average: 0.0173719
ExecutionTime = 27.51 s  ClockTime = 28 s

Time = 492

smoothSolver:  Solving for Ux, Initial residual = 0.000351553, Final residual = 2.54315e-05, No Iterations 4
smoothSolver:  Solving for Uy, Initial residual = 0.000583183, Final residual = 4.60665e-05, No Iterations 4
GAMG:  Solving for p, Initial residual = 0.000576131, Final residual = 5.34345e-05, No Iterations 2
time step continuity errors : sum local = 0.000145265, global = 1.73582e-15, cumulative = 1.28512e-12
smoothSolver:  Solving for nuTilda, Initial residual = 0.000163677, Final residual = 1.26186e-05, No Iterations 4
bounding nuTilda, min: -0.000376813 max: 0.14 average: 0.0173482
ExecutionTime = 27.57 s  ClockTime = 28 s

Time = 493

smoothSolver:  Solving for Ux, Initial residual = 0.00034932, Final residual = 2.52502e-05, No Iterations 4
smoothSolver:  Solving for Uy, Initial residual = 0.000580521, Final residual = 4.58501e-05, No Iterations 4
GAMG:  Solving for p, Initial residual = 0.000575471, Final residual = 5.71547e-05, No Iterations 2
time step continuity errors : sum local = 0.000155456, global = 1.07046e-15, cumulative = 1.28619e-12
smoothSolver:  Solving for nuTilda, Initial residual = 0.000162296, Final residual = 1.25102e-05, No Iterations 4
bounding nuTilda, min: -0.000376003 max: 0.14 average: 0.0173246
ExecutionTime = 27.62 s  ClockTime = 28 s

Time = 494

smoothSolver:  Solving for Ux, Initial residual = 0.000347243, Final residual = 2.50801e-05, No Iterations 4
smoothSolver:  Solving for Uy, Initial residual = 0.000577911, Final residual = 4.56297e-05, No Iterations 4
GAMG:  Solving for p, Initial residual = 0.000577324, Final residual = 5.64631e-05, No Iterations 4
time step continuity errors : sum local = 0.000153345, global = 2.529e-15, cumulative = 1.28872e-12
smoothSolver:  Solving for nuTilda, Initial residual = 0.000160927, Final residual = 1.24028e-05, No Iterations 4
bounding nuTilda, min: -0.000375106 max: 0.14 average: 0.017301
ExecutionTime = 27.68 s  ClockTime = 28 s

Time = 495

smoothSolver:  Solving for Ux, Initial residual = 0.000345316, Final residual = 2.49126e-05, No Iterations 4
smoothSolver:  Solving for Uy, Initial residual = 0.000573167, Final residual = 4.52615e-05, No Iterations 4
GAMG:  Solving for p, Initial residual = 0.000579374, Final residual = 5.54299e-05, No Iterations 2
time step continuity errors : sum local = 0.000150653, global = 4.51793e-15, cumulative = 1.29323e-12
smoothSolver:  Solving for nuTilda, Initial residual = 0.000159567, Final residual = 1.22959e-05, No Iterations 4
bounding nuTilda, min: -0.000374396 max: 0.14 average: 0.0172776
ExecutionTime = 27.73 s  ClockTime = 28 s

forces wings output:
    sum of forces:
        pressure : (0.0225339 0.594942 -5.28632e-21)
        viscous  : (0.0120526 0.0003658 2.3798e-20)
        porous   : (0 0 0)
    sum of moments:
        pressure : (-0.00297471 0.000112669 0.040053)
        viscous  : (-1.829e-06 6.02632e-05 -9.90716e-05)
        porous   : (0 0 0)

Time = 496

smoothSolver:  Solving for Ux, Initial residual = 0.000343448, Final residual = 2.47537e-05, No Iterations 4
smoothSolver:  Solving for Uy, Initial residual = 0.000571259, Final residual = 4.50929e-05, No Iterations 4
GAMG:  Solving for p, Initial residual = 0.000579915, Final residual = 4.66361e-05, No Iterations 3
time step continuity errors : sum local = 0.00012661, global = 4.3831e-15, cumulative = 1.29762e-12
smoothSolver:  Solving for nuTilda, Initial residual = 0.000158218, Final residual = 1.21901e-05, No Iterations 4
bounding nuTilda, min: -0.000373454 max: 0.14 average: 0.0172543
ExecutionTime = 27.79 s  ClockTime = 28 s

Time = 497

smoothSolver:  Solving for Ux, Initial residual = 0.00034269, Final residual = 2.46722e-05, No Iterations 4
smoothSolver:  Solving for Uy, Initial residual = 0.000569373, Final residual = 4.48965e-05, No Iterations 4
GAMG:  Solving for p, Initial residual = 0.000580074, Final residual = 5.3216e-05, No Iterations 2
time step continuity errors : sum local = 0.000144505, global = 1.49986e-15, cumulative = 1.29912e-12
smoothSolver:  Solving for nuTilda, Initial residual = 0.000156882, Final residual = 1.20849e-05, No Iterations 4
bounding nuTilda, min: -0.000372781 max: 0.14 average: 0.0172311
ExecutionTime = 27.84 s  ClockTime = 28 s

Time = 498

smoothSolver:  Solving for Ux, Initial residual = 0.000340624, Final residual = 2.4507e-05, No Iterations 4
smoothSolver:  Solving for Uy, Initial residual = 0.000567049, Final residual = 4.47053e-05, No Iterations 4
GAMG:  Solving for p, Initial residual = 0.000582563, Final residual = 5.81982e-05, No Iterations 3
time step continuity errors : sum local = 0.000158226, global = 2.10468e-16, cumulative = 1.29933e-12
smoothSolver:  Solving for nuTilda, Initial residual = 0.00015555, Final residual = 1.19806e-05, No Iterations 4
bounding nuTilda, min: -0.000371856 max: 0.14 average: 0.017208
ExecutionTime = 27.89 s  ClockTime = 28 s

Time = 499

smoothSolver:  Solving for Ux, Initial residual = 0.000339563, Final residual = 2.44107e-05, No Iterations 4
smoothSolver:  Solving for Uy, Initial residual = 0.000562971, Final residual = 4.43688e-05, No Iterations 4
GAMG:  Solving for p, Initial residual = 0.000586363, Final residual = 5.7223e-05, No Iterations 2
time step continuity errors : sum local = 0.00015539, global = 9.70967e-16, cumulative = 1.3003e-12
smoothSolver:  Solving for nuTilda, Initial residual = 0.000154232, Final residual = 1.18769e-05, No Iterations 4
bounding nuTilda, min: -0.000371164 max: 0.14 average: 0.017185
ExecutionTime = 27.95 s  ClockTime = 28 s

Time = 500

smoothSolver:  Solving for Ux, Initial residual = 0.000337385, Final residual = 2.42387e-05, No Iterations 4
smoothSolver:  Solving for Uy, Initial residual = 0.000560272, Final residual = 4.41498e-05, No Iterations 4
GAMG:  Solving for p, Initial residual = 0.000588598, Final residual = 5.77516e-05, No Iterations 4
time step continuity errors : sum local = 0.000157094, global = 1.56005e-15, cumulative = 1.30186e-12
smoothSolver:  Solving for nuTilda, Initial residual = 0.000152917, Final residual = 1.17739e-05, No Iterations 4
bounding nuTilda, min: -0.000370282 max: 0.14 average: 0.017162
ExecutionTime = 28.1 s  ClockTime = 29 s

forces wings output:
    sum of forces:
        pressure : (0.0221072 0.5961 -5.25125e-21)
        viscous  : (0.0120451 0.000368386 2.38326e-20)
        porous   : (0 0 0)
    sum of moments:
        pressure : (-0.0029805 0.000110536 0.0399931)
        viscous  : (-1.84193e-06 6.02255e-05 -9.91706e-05)
        porous   : (0 0 0)

End

