/*---------------------------------------------------------------------------*\
| =========                 |                                                 |
| \\      /  F ield         | OpenFOAM: The Open Source CFD Toolbox           |
|  \\    /   O peration     | Version:  2.3.0                                 |
|   \\  /    A nd           | Web:      www.OpenFOAM.org                      |
|    \\/     M anipulation  |                                                 |
\*---------------------------------------------------------------------------*/
Build  : 2.3.0-f5222ca19ce6
Exec   : simpleFoam -case Runs/first_flatplate_300_16/case
Date   : Jan 11 2015
Time   : 13:25:15
Host   : "lordvon-XPS-8300"
PID    : 6310
Case   : Runs/first_flatplate_300_16/case
nProcs : 1
sigFpe : Enabling floating point exception trapping (FOAM_SIGFPE).
fileModificationChecking : Monitoring run-time modified files using timeStampMaster
allowSystemOperations : Disallowing user-supplied system call operations

// * * * * * * * * * * * * * * * * * * * * * * * * * * * * * * * * * * * * * //
Create time

Create mesh for time = 0

Reading field p

Reading field U

Reading/calculating face flux field phi

Selecting incompressible transport model Newtonian
Selecting RAS turbulence model SpalartAllmaras
SpalartAllmarasCoeffs
{
    sigmaNut        0.66666;
    kappa           0.41;
    Cb1             0.1355;
    Cb2             0.622;
    Cw2             0.3;
    Cw3             2;
    Cv1             7.1;
    Cv2             5;
}

    Employing Ashford correction
No finite volume options present


SIMPLE: convergence criteria
    field p	 tolerance 1e-12
    field U	 tolerance 1e-12
    field nuTilda	 tolerance 1e-12


Starting time loop

forces wings:
    Not including porosity effects

Time = 1

smoothSolver:  Solving for Ux, Initial residual = 1, Final residual = 0.00857362, No Iterations 6
smoothSolver:  Solving for Uy, Initial residual = 1, Final residual = 0.00778729, No Iterations 4
GAMG:  Solving for p, Initial residual = 1, Final residual = 0.00996856, No Iterations 12
time step continuity errors : sum local = 0.00111595, global = -1.16651e-16, cumulative = -1.16651e-16
smoothSolver:  Solving for nuTilda, Initial residual = 1, Final residual = 0.00401475, No Iterations 4
ExecutionTime = 0.39 s  ClockTime = 0 s

Time = 2

smoothSolver:  Solving for Ux, Initial residual = 0.628026, Final residual = 0.00334821, No Iterations 8
smoothSolver:  Solving for Uy, Initial residual = 0.672594, Final residual = 0.00372699, No Iterations 8
GAMG:  Solving for p, Initial residual = 0.800108, Final residual = 0.00684142, No Iterations 7
time step continuity errors : sum local = 0.0018398, global = -1.27234e-16, cumulative = -2.43885e-16
smoothSolver:  Solving for nuTilda, Initial residual = 0.184296, Final residual = 0.000711867, No Iterations 6
ExecutionTime = 0.49 s  ClockTime = 0 s

Time = 3

smoothSolver:  Solving for Ux, Initial residual = 0.242148, Final residual = 0.00126561, No Iterations 8
smoothSolver:  Solving for Uy, Initial residual = 0.242853, Final residual = 0.00132864, No Iterations 8
GAMG:  Solving for p, Initial residual = 0.634146, Final residual = 0.00570125, No Iterations 10
time step continuity errors : sum local = 0.00212613, global = 1.44685e-16, cumulative = -9.92001e-17
smoothSolver:  Solving for nuTilda, Initial residual = 0.0933287, Final residual = 0.000844768, No Iterations 6
ExecutionTime = 0.6 s  ClockTime = 1 s

Time = 4

smoothSolver:  Solving for Ux, Initial residual = 0.0836524, Final residual = 0.000374725, No Iterations 8
smoothSolver:  Solving for Uy, Initial residual = 0.0796416, Final residual = 0.000416698, No Iterations 8
GAMG:  Solving for p, Initial residual = 0.540677, Final residual = 0.00435057, No Iterations 9
time step continuity errors : sum local = 0.00149784, global = 1.38329e-16, cumulative = 3.91292e-17
smoothSolver:  Solving for nuTilda, Initial residual = 0.0707319, Final residual = 0.000202097, No Iterations 8
ExecutionTime = 0.7 s  ClockTime = 1 s

Time = 5

smoothSolver:  Solving for Ux, Initial residual = 0.234951, Final residual = 0.00121438, No Iterations 8
smoothSolver:  Solving for Uy, Initial residual = 0.235939, Final residual = 0.00126395, No Iterations 8
GAMG:  Solving for p, Initial residual = 0.510751, Final residual = 0.00509348, No Iterations 7
time step continuity errors : sum local = 0.00179996, global = 2.64412e-16, cumulative = 3.03541e-16
smoothSolver:  Solving for nuTilda, Initial residual = 0.0584678, Final residual = 0.000184973, No Iterations 8
ExecutionTime = 0.8 s  ClockTime = 1 s

forces wings output:
    sum of forces:
        pressure : (-551.146 -1922.08 -1.06971e-17)
        viscous  : (0.504448 -0.0984977 1.30817e-19)
        porous   : (0 0 0)
    sum of moments:
        pressure : (96.1038 -27.5573 -504.08)
        viscous  : (0.00492488 0.0252224 0.0111665)
        porous   : (0 0 0)

Time = 6

smoothSolver:  Solving for Ux, Initial residual = 0.198629, Final residual = 0.000990373, No Iterations 8
smoothSolver:  Solving for Uy, Initial residual = 0.213621, Final residual = 0.00113821, No Iterations 8
GAMG:  Solving for p, Initial residual = 0.418052, Final residual = 0.00379576, No Iterations 10
time step continuity errors : sum local = 0.00132301, global = -2.46284e-18, cumulative = 3.01078e-16
smoothSolver:  Solving for nuTilda, Initial residual = 0.0487855, Final residual = 0.000161514, No Iterations 8
ExecutionTime = 0.91 s  ClockTime = 1 s

Time = 7

smoothSolver:  Solving for Ux, Initial residual = 0.151499, Final residual = 0.00070078, No Iterations 8
smoothSolver:  Solving for Uy, Initial residual = 0.180445, Final residual = 0.000938955, No Iterations 8
GAMG:  Solving for p, Initial residual = 0.323769, Final residual = 0.00216828, No Iterations 8
time step continuity errors : sum local = 0.000709276, global = 1.72778e-16, cumulative = 4.73856e-16
smoothSolver:  Solving for nuTilda, Initial residual = 0.0407963, Final residual = 0.000138278, No Iterations 8
ExecutionTime = 1.02 s  ClockTime = 1 s

Time = 8

smoothSolver:  Solving for Ux, Initial residual = 0.16466, Final residual = 0.000824032, No Iterations 8
smoothSolver:  Solving for Uy, Initial residual = 0.181525, Final residual = 0.000953253, No Iterations 8
GAMG:  Solving for p, Initial residual = 0.370424, Final residual = 0.00284284, No Iterations 8
time step continuity errors : sum local = 0.000985705, global = 3.04598e-16, cumulative = 7.78453e-16
smoothSolver:  Solving for nuTilda, Initial residual = 0.0343416, Final residual = 0.000118541, No Iterations 8
ExecutionTime = 1.12 s  ClockTime = 1 s

Time = 9

smoothSolver:  Solving for Ux, Initial residual = 0.0565874, Final residual = 0.00025757, No Iterations 8
smoothSolver:  Solving for Uy, Initial residual = 0.0462192, Final residual = 0.000238303, No Iterations 8
GAMG:  Solving for p, Initial residual = 0.286455, Final residual = 0.0021424, No Iterations 9
time step continuity errors : sum local = 0.000725079, global = -1.50291e-16, cumulative = 6.28162e-16
smoothSolver:  Solving for nuTilda, Initial residual = 0.0294757, Final residual = 0.000103703, No Iterations 8
ExecutionTime = 1.22 s  ClockTime = 1 s

Time = 10

smoothSolver:  Solving for Ux, Initial residual = 0.0695128, Final residual = 0.000325784, No Iterations 8
smoothSolver:  Solving for Uy, Initial residual = 0.0810035, Final residual = 0.000415415, No Iterations 8
GAMG:  Solving for p, Initial residual = 0.241186, Final residual = 0.00230648, No Iterations 5
time step continuity errors : sum local = 0.000747796, global = -8.27485e-17, cumulative = 5.45414e-16
smoothSolver:  Solving for nuTilda, Initial residual = 0.0257198, Final residual = 9.25045e-05, No Iterations 8
ExecutionTime = 1.31 s  ClockTime = 1 s

forces wings output:
    sum of forces:
        pressure : (-338.876 -1181.8 -2.75701e-18)
        viscous  : (0.458177 -0.169519 8.67689e-20)
        porous   : (0 0 0)
    sum of moments:
        pressure : (59.0901 -16.9438 -317.337)
        viscous  : (0.00847596 0.0229089 -0.0093803)
        porous   : (0 0 0)

Time = 11

smoothSolver:  Solving for Ux, Initial residual = 0.0886363, Final residual = 0.000431294, No Iterations 8
smoothSolver:  Solving for Uy, Initial residual = 0.107942, Final residual = 0.00055067, No Iterations 8
GAMG:  Solving for p, Initial residual = 0.262445, Final residual = 0.0025608, No Iterations 7
time step continuity errors : sum local = 0.000853505, global = 1.55723e-16, cumulative = 7.01137e-16
smoothSolver:  Solving for nuTilda, Initial residual = 0.0227278, Final residual = 8.37466e-05, No Iterations 8
ExecutionTime = 1.42 s  ClockTime = 1 s

Time = 12

smoothSolver:  Solving for Ux, Initial residual = 0.0353466, Final residual = 0.000133667, No Iterations 8
smoothSolver:  Solving for Uy, Initial residual = 0.0257405, Final residual = 0.000112459, No Iterations 8
GAMG:  Solving for p, Initial residual = 0.199157, Final residual = 0.00172993, No Iterations 9
time step continuity errors : sum local = 0.000548726, global = 4.76256e-17, cumulative = 7.48762e-16
smoothSolver:  Solving for nuTilda, Initial residual = 0.0201816, Final residual = 7.61521e-05, No Iterations 8
ExecutionTime = 1.52 s  ClockTime = 2 s

Time = 13

smoothSolver:  Solving for Ux, Initial residual = 0.0596103, Final residual = 0.000266452, No Iterations 8
smoothSolver:  Solving for Uy, Initial residual = 0.0703324, Final residual = 0.000351192, No Iterations 8
GAMG:  Solving for p, Initial residual = 0.177038, Final residual = 0.00135362, No Iterations 6
time step continuity errors : sum local = 0.000419497, global = 1.21572e-16, cumulative = 8.70334e-16
smoothSolver:  Solving for nuTilda, Initial residual = 0.0179366, Final residual = 6.93196e-05, No Iterations 8
ExecutionTime = 1.62 s  ClockTime = 2 s

Time = 14

smoothSolver:  Solving for Ux, Initial residual = 0.0489674, Final residual = 0.000222627, No Iterations 8
smoothSolver:  Solving for Uy, Initial residual = 0.0508075, Final residual = 0.000251374, No Iterations 8
GAMG:  Solving for p, Initial residual = 0.187948, Final residual = 0.00161673, No Iterations 7
time step continuity errors : sum local = 0.000518593, global = 2.15695e-16, cumulative = 1.08603e-15
smoothSolver:  Solving for nuTilda, Initial residual = 0.0159883, Final residual = 6.35023e-05, No Iterations 8
ExecutionTime = 1.71 s  ClockTime = 2 s

Time = 15

smoothSolver:  Solving for Ux, Initial residual = 0.0233372, Final residual = 9.12068e-05, No Iterations 8
smoothSolver:  Solving for Uy, Initial residual = 0.0155921, Final residual = 6.79436e-05, No Iterations 8
GAMG:  Solving for p, Initial residual = 0.137609, Final residual = 0.00104002, No Iterations 8
time step continuity errors : sum local = 0.000323906, global = -1.49034e-17, cumulative = 1.07113e-15
smoothSolver:  Solving for nuTilda, Initial residual = 0.0144163, Final residual = 5.88563e-05, No Iterations 8
ExecutionTime = 1.82 s  ClockTime = 2 s

forces wings output:
    sum of forces:
        pressure : (-121.21 -422.709 1.76744e-18)
        viscous  : (0.446331 -0.158734 -1.09088e-20)
        porous   : (0 0 0)
    sum of moments:
        pressure : (21.1354 -6.06049 -118.571)
        viscous  : (0.00793669 0.0223166 -0.00774985)
        porous   : (0 0 0)

Time = 16

smoothSolver:  Solving for Ux, Initial residual = 0.0326364, Final residual = 0.00014612, No Iterations 8
smoothSolver:  Solving for Uy, Initial residual = 0.0412404, Final residual = 0.000201406, No Iterations 8
GAMG:  Solving for p, Initial residual = 0.132711, Final residual = 0.00104384, No Iterations 6
time step continuity errors : sum local = 0.000321195, global = 1.65795e-17, cumulative = 1.08771e-15
smoothSolver:  Solving for nuTilda, Initial residual = 0.0131303, Final residual = 5.51219e-05, No Iterations 8
ExecutionTime = 1.91 s  ClockTime = 2 s

Time = 17

smoothSolver:  Solving for Ux, Initial residual = 0.0247127, Final residual = 0.00010853, No Iterations 8
smoothSolver:  Solving for Uy, Initial residual = 0.0300353, Final residual = 0.000143184, No Iterations 8
GAMG:  Solving for p, Initial residual = 0.130038, Final residual = 0.00111196, No Iterations 6
time step continuity errors : sum local = 0.000344861, global = -4.50669e-17, cumulative = 1.04264e-15
smoothSolver:  Solving for nuTilda, Initial residual = 0.0120485, Final residual = 5.19003e-05, No Iterations 8
ExecutionTime = 2.01 s  ClockTime = 2 s

Time = 18

smoothSolver:  Solving for Ux, Initial residual = 0.0170637, Final residual = 6.59883e-05, No Iterations 8
smoothSolver:  Solving for Uy, Initial residual = 0.016748, Final residual = 7.61645e-05, No Iterations 8
GAMG:  Solving for p, Initial residual = 0.0941533, Final residual = 0.000796671, No Iterations 7
time step continuity errors : sum local = 0.000242564, global = -3.45612e-16, cumulative = 6.97026e-16
smoothSolver:  Solving for nuTilda, Initial residual = 0.0111149, Final residual = 4.88633e-05, No Iterations 8
ExecutionTime = 2.11 s  ClockTime = 2 s

Time = 19

smoothSolver:  Solving for Ux, Initial residual = 0.0225835, Final residual = 9.78791e-05, No Iterations 8
smoothSolver:  Solving for Uy, Initial residual = 0.0253485, Final residual = 0.0001223, No Iterations 8
GAMG:  Solving for p, Initial residual = 0.0951933, Final residual = 0.000758989, No Iterations 6
time step continuity errors : sum local = 0.000227969, global = 1.88233e-16, cumulative = 8.85259e-16
smoothSolver:  Solving for nuTilda, Initial residual = 0.0102649, Final residual = 4.59624e-05, No Iterations 8
ExecutionTime = 2.21 s  ClockTime = 2 s

Time = 20

smoothSolver:  Solving for Ux, Initial residual = 0.0153464, Final residual = 6.45675e-05, No Iterations 8
smoothSolver:  Solving for Uy, Initial residual = 0.0122635, Final residual = 5.7879e-05, No Iterations 8
GAMG:  Solving for p, Initial residual = 0.0890265, Final residual = 0.000818886, No Iterations 6
time step continuity errors : sum local = 0.000251778, global = -4.60035e-17, cumulative = 8.39255e-16
smoothSolver:  Solving for nuTilda, Initial residual = 0.00949723, Final residual = 4.33627e-05, No Iterations 8
ExecutionTime = 2.3 s  ClockTime = 2 s

forces wings output:
    sum of forces:
        pressure : (-18.8587 -65.7682 2.37107e-18)
        viscous  : (0.436807 -0.138036 -4.58085e-20)
        porous   : (0 0 0)
    sum of moments:
        pressure : (3.28841 -0.942936 -22.3186)
        viscous  : (0.00690181 0.0218404 -0.00333118)
        porous   : (0 0 0)

Time = 21

smoothSolver:  Solving for Ux, Initial residual = 0.013173, Final residual = 5.52853e-05, No Iterations 8
smoothSolver:  Solving for Uy, Initial residual = 0.0114358, Final residual = 5.2915e-05, No Iterations 8
GAMG:  Solving for p, Initial residual = 0.0654523, Final residual = 0.000494228, No Iterations 5
time step continuity errors : sum local = 0.000149242, global = 1.26941e-17, cumulative = 8.5195e-16
smoothSolver:  Solving for nuTilda, Initial residual = 0.00886854, Final residual = 4.11114e-05, No Iterations 8
ExecutionTime = 2.4 s  ClockTime = 2 s

Time = 22

smoothSolver:  Solving for Ux, Initial residual = 0.0126066, Final residual = 5.52392e-05, No Iterations 8
smoothSolver:  Solving for Uy, Initial residual = 0.0157313, Final residual = 7.45963e-05, No Iterations 8
GAMG:  Solving for p, Initial residual = 0.0681154, Final residual = 0.000407257, No Iterations 6
time step continuity errors : sum local = 0.000122973, global = 2.37101e-16, cumulative = 1.08905e-15
smoothSolver:  Solving for nuTilda, Initial residual = 0.0083363, Final residual = 3.91359e-05, No Iterations 8
ExecutionTime = 2.5 s  ClockTime = 2 s

Time = 23

smoothSolver:  Solving for Ux, Initial residual = 0.00754204, Final residual = 3.04577e-05, No Iterations 8
smoothSolver:  Solving for Uy, Initial residual = 0.00728026, Final residual = 3.27252e-05, No Iterations 8
GAMG:  Solving for p, Initial residual = 0.0621415, Final residual = 0.00034572, No Iterations 6
time step continuity errors : sum local = 0.000104485, global = 5.8462e-17, cumulative = 1.14751e-15
smoothSolver:  Solving for nuTilda, Initial residual = 0.00788327, Final residual = 3.73241e-05, No Iterations 8
ExecutionTime = 2.59 s  ClockTime = 3 s

Time = 24

smoothSolver:  Solving for Ux, Initial residual = 0.00904624, Final residual = 3.66229e-05, No Iterations 8
smoothSolver:  Solving for Uy, Initial residual = 0.00908597, Final residual = 4.25017e-05, No Iterations 8
GAMG:  Solving for p, Initial residual = 0.0458303, Final residual = 0.000455394, No Iterations 5
time step continuity errors : sum local = 0.000136412, global = -2.37853e-16, cumulative = 9.0966e-16
smoothSolver:  Solving for nuTilda, Initial residual = 0.00747074, Final residual = 3.55741e-05, No Iterations 8
ExecutionTime = 2.68 s  ClockTime = 3 s

Time = 25

smoothSolver:  Solving for Ux, Initial residual = 0.00956678, Final residual = 3.99786e-05, No Iterations 8
smoothSolver:  Solving for Uy, Initial residual = 0.00861561, Final residual = 4.03543e-05, No Iterations 8
GAMG:  Solving for p, Initial residual = 0.0449888, Final residual = 0.000315517, No Iterations 6
time step continuity errors : sum local = 9.48925e-05, global = -1.115e-16, cumulative = 7.9816e-16
smoothSolver:  Solving for nuTilda, Initial residual = 0.00709901, Final residual = 3.38913e-05, No Iterations 8
ExecutionTime = 2.78 s  ClockTime = 3 s

forces wings output:
    sum of forces:
        pressure : (9.50553 33.1497 2.54236e-18)
        viscous  : (0.424942 -0.124906 -6.00949e-20)
        porous   : (0 0 0)
    sum of moments:
        pressure : (-1.65749 0.475277 4.71774)
        viscous  : (0.00624529 0.0212471 -0.000912322)
        porous   : (0 0 0)

Time = 26

smoothSolver:  Solving for Ux, Initial residual = 0.00743964, Final residual = 3.00245e-05, No Iterations 8
smoothSolver:  Solving for Uy, Initial residual = 0.00410346, Final residual = 1.86106e-05, No Iterations 8
GAMG:  Solving for p, Initial residual = 0.0409844, Final residual = 0.000364903, No Iterations 5
time step continuity errors : sum local = 0.000109001, global = 1.75312e-16, cumulative = 9.73472e-16
smoothSolver:  Solving for nuTilda, Initial residual = 0.00676468, Final residual = 3.23178e-05, No Iterations 8
ExecutionTime = 2.87 s  ClockTime = 3 s

Time = 27

smoothSolver:  Solving for Ux, Initial residual = 0.00755863, Final residual = 3.16099e-05, No Iterations 8
smoothSolver:  Solving for Uy, Initial residual = 0.00619749, Final residual = 2.90303e-05, No Iterations 8
GAMG:  Solving for p, Initial residual = 0.0333219, Final residual = 0.000130474, No Iterations 6
time step continuity errors : sum local = 3.93976e-05, global = 2.04061e-16, cumulative = 1.17753e-15
smoothSolver:  Solving for nuTilda, Initial residual = 0.00647173, Final residual = 3.09172e-05, No Iterations 8
ExecutionTime = 2.97 s  ClockTime = 3 s

Time = 28

smoothSolver:  Solving for Ux, Initial residual = 0.00609235, Final residual = 2.52561e-05, No Iterations 8
smoothSolver:  Solving for Uy, Initial residual = 0.00582597, Final residual = 2.71108e-05, No Iterations 8
GAMG:  Solving for p, Initial residual = 0.0311865, Final residual = 0.000142203, No Iterations 6
time step continuity errors : sum local = 4.26954e-05, global = -2.24923e-16, cumulative = 9.52609e-16
smoothSolver:  Solving for nuTilda, Initial residual = 0.00620573, Final residual = 2.96309e-05, No Iterations 8
ExecutionTime = 3.06 s  ClockTime = 3 s

Time = 29

smoothSolver:  Solving for Ux, Initial residual = 0.00534554, Final residual = 2.12585e-05, No Iterations 8
smoothSolver:  Solving for Uy, Initial residual = 0.00406604, Final residual = 1.86253e-05, No Iterations 8
GAMG:  Solving for p, Initial residual = 0.0281753, Final residual = 0.000180988, No Iterations 5
time step continuity errors : sum local = 5.47046e-05, global = 4.36806e-18, cumulative = 9.56977e-16
smoothSolver:  Solving for nuTilda, Initial residual = 0.00596365, Final residual = 2.84358e-05, No Iterations 8
ExecutionTime = 3.15 s  ClockTime = 3 s

Time = 30

smoothSolver:  Solving for Ux, Initial residual = 0.00597417, Final residual = 2.39118e-05, No Iterations 8
smoothSolver:  Solving for Uy, Initial residual = 0.00455082, Final residual = 2.15039e-05, No Iterations 8
GAMG:  Solving for p, Initial residual = 0.0242113, Final residual = 0.00017522, No Iterations 6
time step continuity errors : sum local = 5.29535e-05, global = 2.16458e-17, cumulative = 9.78623e-16
smoothSolver:  Solving for nuTilda, Initial residual = 0.00573012, Final residual = 2.72706e-05, No Iterations 8
ExecutionTime = 3.25 s  ClockTime = 3 s

forces wings output:
    sum of forces:
        pressure : (10.8752 37.9263 2.61352e-18)
        viscous  : (0.411512 -0.11782 -6.60931e-20)
        porous   : (0 0 0)
    sum of moments:
        pressure : (-1.89631 0.54376 5.42932)
        viscous  : (0.00589102 0.0205756 -0.000112698)
        porous   : (0 0 0)

Time = 31

smoothSolver:  Solving for Ux, Initial residual = 0.00569785, Final residual = 2.29621e-05, No Iterations 8
smoothSolver:  Solving for Uy, Initial residual = 0.00332788, Final residual = 1.55775e-05, No Iterations 8
GAMG:  Solving for p, Initial residual = 0.0212593, Final residual = 0.000205211, No Iterations 5
time step continuity errors : sum local = 6.22314e-05, global = -2.3127e-17, cumulative = 9.55496e-16
smoothSolver:  Solving for nuTilda, Initial residual = 0.00550159, Final residual = 2.61518e-05, No Iterations 8
ExecutionTime = 3.35 s  ClockTime = 3 s

Time = 32

smoothSolver:  Solving for Ux, Initial residual = 0.00543581, Final residual = 2.23187e-05, No Iterations 8
smoothSolver:  Solving for Uy, Initial residual = 0.00295992, Final residual = 1.36641e-05, No Iterations 8
GAMG:  Solving for p, Initial residual = 0.0197362, Final residual = 9.18517e-05, No Iterations 5
time step continuity errors : sum local = 2.78035e-05, global = 2.63076e-16, cumulative = 1.21857e-15
smoothSolver:  Solving for nuTilda, Initial residual = 0.00528195, Final residual = 2.50855e-05, No Iterations 8
ExecutionTime = 3.44 s  ClockTime = 3 s

Time = 33

smoothSolver:  Solving for Ux, Initial residual = 0.00508663, Final residual = 2.12474e-05, No Iterations 8
smoothSolver:  Solving for Uy, Initial residual = 0.00330504, Final residual = 1.58367e-05, No Iterations 8
GAMG:  Solving for p, Initial residual = 0.0180147, Final residual = 0.000177008, No Iterations 5
time step continuity errors : sum local = 5.35626e-05, global = -6.49285e-17, cumulative = 1.15364e-15
smoothSolver:  Solving for nuTilda, Initial residual = 0.00507705, Final residual = 2.40981e-05, No Iterations 8
ExecutionTime = 3.53 s  ClockTime = 4 s

Time = 34

smoothSolver:  Solving for Ux, Initial residual = 0.00456095, Final residual = 1.9099e-05, No Iterations 8
smoothSolver:  Solving for Uy, Initial residual = 0.00264891, Final residual = 1.29713e-05, No Iterations 8
GAMG:  Solving for p, Initial residual = 0.0150294, Final residual = 0.000110247, No Iterations 5
time step continuity errors : sum local = 3.34565e-05, global = -1.24401e-16, cumulative = 1.02924e-15
smoothSolver:  Solving for nuTilda, Initial residual = 0.0048837, Final residual = 2.31694e-05, No Iterations 8
ExecutionTime = 3.62 s  ClockTime = 4 s

Time = 35

smoothSolver:  Solving for Ux, Initial residual = 0.00441592, Final residual = 1.8371e-05, No Iterations 8
smoothSolver:  Solving for Uy, Initial residual = 0.00270481, Final residual = 1.30534e-05, No Iterations 8
GAMG:  Solving for p, Initial residual = 0.0136112, Final residual = 0.00011406, No Iterations 5
time step continuity errors : sum local = 3.49792e-05, global = -2.9035e-18, cumulative = 1.02634e-15
smoothSolver:  Solving for nuTilda, Initial residual = 0.00469833, Final residual = 2.22813e-05, No Iterations 8
ExecutionTime = 3.71 s  ClockTime = 4 s

forces wings output:
    sum of forces:
        pressure : (8.33342 29.0621 2.74755e-18)
        viscous  : (0.397343 -0.113222 -7.3404e-20)
        porous   : (0 0 0)
    sum of moments:
        pressure : (-1.4531 0.416671 2.43558)
        viscous  : (0.00566111 0.0198671 9.5982e-06)
        porous   : (0 0 0)

Time = 36

smoothSolver:  Solving for Ux, Initial residual = 0.0044119, Final residual = 1.84109e-05, No Iterations 8
smoothSolver:  Solving for Uy, Initial residual = 0.00245296, Final residual = 1.20906e-05, No Iterations 8
GAMG:  Solving for p, Initial residual = 0.0130073, Final residual = 0.000111173, No Iterations 5
time step continuity errors : sum local = 3.38075e-05, global = -2.36216e-16, cumulative = 7.90123e-16
smoothSolver:  Solving for nuTilda, Initial residual = 0.00452343, Final residual = 2.14428e-05, No Iterations 8
ExecutionTime = 3.81 s  ClockTime = 4 s

Time = 37

smoothSolver:  Solving for Ux, Initial residual = 0.00434176, Final residual = 1.83618e-05, No Iterations 8
smoothSolver:  Solving for Uy, Initial residual = 0.00189991, Final residual = 9.69835e-06, No Iterations 8
GAMG:  Solving for p, Initial residual = 0.0109621, Final residual = 6.31171e-05, No Iterations 5
time step continuity errors : sum local = 1.91617e-05, global = -2.86856e-16, cumulative = 5.03267e-16
smoothSolver:  Solving for nuTilda, Initial residual = 0.00435355, Final residual = 2.06328e-05, No Iterations 8
ExecutionTime = 3.9 s  ClockTime = 4 s

Time = 38

smoothSolver:  Solving for Ux, Initial residual = 0.00421906, Final residual = 1.81248e-05, No Iterations 8
smoothSolver:  Solving for Uy, Initial residual = 0.00201797, Final residual = 1.02353e-05, No Iterations 8
GAMG:  Solving for p, Initial residual = 0.00984758, Final residual = 4.97334e-05, No Iterations 5
time step continuity errors : sum local = 1.51298e-05, global = -2.50868e-17, cumulative = 4.7818e-16
smoothSolver:  Solving for nuTilda, Initial residual = 0.00419468, Final residual = 1.98751e-05, No Iterations 8
ExecutionTime = 3.99 s  ClockTime = 4 s

Time = 39

smoothSolver:  Solving for Ux, Initial residual = 0.00405751, Final residual = 1.7546e-05, No Iterations 8
smoothSolver:  Solving for Uy, Initial residual = 0.00198991, Final residual = 1.02857e-05, No Iterations 8
GAMG:  Solving for p, Initial residual = 0.00948898, Final residual = 7.19398e-05, No Iterations 5
time step continuity errors : sum local = 2.18968e-05, global = 5.51241e-17, cumulative = 5.33304e-16
smoothSolver:  Solving for nuTilda, Initial residual = 0.00404208, Final residual = 1.9143e-05, No Iterations 8
ExecutionTime = 4.08 s  ClockTime = 4 s

Time = 40

smoothSolver:  Solving for Ux, Initial residual = 0.00391636, Final residual = 1.69074e-05, No Iterations 8
smoothSolver:  Solving for Uy, Initial residual = 0.00183947, Final residual = 9.74453e-06, No Iterations 8
GAMG:  Solving for p, Initial residual = 0.00819077, Final residual = 6.0112e-05, No Iterations 5
time step continuity errors : sum local = 1.8431e-05, global = -4.68566e-17, cumulative = 4.86448e-16
smoothSolver:  Solving for nuTilda, Initial residual = 0.00390159, Final residual = 1.84754e-05, No Iterations 8
ExecutionTime = 4.17 s  ClockTime = 4 s

forces wings output:
    sum of forces:
        pressure : (6.81847 23.7788 2.82177e-18)
        viscous  : (0.382913 -0.109238 -7.76355e-20)
        porous   : (0 0 0)
    sum of moments:
        pressure : (-1.18894 0.340924 0.754939)
        viscous  : (0.00546189 0.0191457 -2.31122e-05)
        porous   : (0 0 0)

Time = 41

smoothSolver:  Solving for Ux, Initial residual = 0.00385554, Final residual = 1.65585e-05, No Iterations 8
smoothSolver:  Solving for Uy, Initial residual = 0.00186707, Final residual = 9.81493e-06, No Iterations 8
GAMG:  Solving for p, Initial residual = 0.0075885, Final residual = 6.73036e-05, No Iterations 5
time step continuity errors : sum local = 2.07185e-05, global = -1.36956e-17, cumulative = 4.72752e-16
smoothSolver:  Solving for nuTilda, Initial residual = 0.00376582, Final residual = 1.7825e-05, No Iterations 8
ExecutionTime = 4.27 s  ClockTime = 4 s

Time = 42

smoothSolver:  Solving for Ux, Initial residual = 0.0038292, Final residual = 1.64294e-05, No Iterations 8
smoothSolver:  Solving for Uy, Initial residual = 0.00168669, Final residual = 9.02912e-06, No Iterations 8
GAMG:  Solving for p, Initial residual = 0.00733662, Final residual = 4.63067e-05, No Iterations 5
time step continuity errors : sum local = 1.41088e-05, global = -1.14972e-16, cumulative = 3.5778e-16
smoothSolver:  Solving for nuTilda, Initial residual = 0.00364122, Final residual = 1.7226e-05, No Iterations 8
ExecutionTime = 4.36 s  ClockTime = 4 s

Time = 43

smoothSolver:  Solving for Ux, Initial residual = 0.0037823, Final residual = 1.63238e-05, No Iterations 8
smoothSolver:  Solving for Uy, Initial residual = 0.00161577, Final residual = 8.73708e-06, No Iterations 8
GAMG:  Solving for p, Initial residual = 0.00645644, Final residual = 5.57291e-05, No Iterations 4
time step continuity errors : sum local = 1.69567e-05, global = -1.68071e-16, cumulative = 1.89709e-16
smoothSolver:  Solving for nuTilda, Initial residual = 0.00351855, Final residual = 1.66361e-05, No Iterations 8
ExecutionTime = 4.45 s  ClockTime = 4 s

Time = 44

smoothSolver:  Solving for Ux, Initial residual = 0.00369163, Final residual = 1.60782e-05, No Iterations 8
smoothSolver:  Solving for Uy, Initial residual = 0.00160809, Final residual = 8.75969e-06, No Iterations 8
GAMG:  Solving for p, Initial residual = 0.00603448, Final residual = 5.5089e-05, No Iterations 4
time step continuity errors : sum local = 1.67989e-05, global = 1.29218e-16, cumulative = 3.18927e-16
smoothSolver:  Solving for nuTilda, Initial residual = 0.00340437, Final residual = 1.60924e-05, No Iterations 8
ExecutionTime = 4.54 s  ClockTime = 5 s

Time = 45

smoothSolver:  Solving for Ux, Initial residual = 0.00358738, Final residual = 1.57303e-05, No Iterations 8
smoothSolver:  Solving for Uy, Initial residual = 0.0015744, Final residual = 8.68161e-06, No Iterations 8
GAMG:  Solving for p, Initial residual = 0.00583531, Final residual = 3.69109e-05, No Iterations 5
time step continuity errors : sum local = 1.12476e-05, global = -2.55937e-17, cumulative = 2.93333e-16
smoothSolver:  Solving for nuTilda, Initial residual = 0.00329516, Final residual = 1.55658e-05, No Iterations 8
ExecutionTime = 4.63 s  ClockTime = 5 s

forces wings output:
    sum of forces:
        pressure : (6.62388 23.1002 2.98906e-18)
        viscous  : (0.369171 -0.105467 -8.52601e-20)
        porous   : (0 0 0)
    sum of moments:
        pressure : (-1.15501 0.331194 0.560375)
        viscous  : (0.00527337 0.0184585 -6.39858e-05)
        porous   : (0 0 0)

Time = 46

smoothSolver:  Solving for Ux, Initial residual = 0.00350065, Final residual = 1.53843e-05, No Iterations 8
smoothSolver:  Solving for Uy, Initial residual = 0.00157988, Final residual = 8.74644e-06, No Iterations 8
GAMG:  Solving for p, Initial residual = 0.00532582, Final residual = 4.9336e-05, No Iterations 4
time step continuity errors : sum local = 1.49977e-05, global = 2.18874e-16, cumulative = 5.12207e-16
smoothSolver:  Solving for nuTilda, Initial residual = 0.00319536, Final residual = 1.50728e-05, No Iterations 8
ExecutionTime = 4.72 s  ClockTime = 5 s

Time = 47

smoothSolver:  Solving for Ux, Initial residual = 0.00344429, Final residual = 1.51362e-05, No Iterations 8
smoothSolver:  Solving for Uy, Initial residual = 0.00154687, Final residual = 8.6135e-06, No Iterations 8
GAMG:  Solving for p, Initial residual = 0.00512699, Final residual = 4.86317e-05, No Iterations 4
time step continuity errors : sum local = 1.48166e-05, global = -2.31411e-16, cumulative = 2.80796e-16
smoothSolver:  Solving for nuTilda, Initial residual = 0.00309759, Final residual = 1.45914e-05, No Iterations 8
ExecutionTime = 4.81 s  ClockTime = 5 s

Time = 48

smoothSolver:  Solving for Ux, Initial residual = 0.00340048, Final residual = 1.4966e-05, No Iterations 8
smoothSolver:  Solving for Uy, Initial residual = 0.0015057, Final residual = 8.44396e-06, No Iterations 8
GAMG:  Solving for p, Initial residual = 0.00497397, Final residual = 3.81424e-05, No Iterations 5
time step continuity errors : sum local = 1.16714e-05, global = 1.3345e-16, cumulative = 4.14246e-16
smoothSolver:  Solving for nuTilda, Initial residual = 0.00300459, Final residual = 1.41388e-05, No Iterations 8
ExecutionTime = 4.9 s  ClockTime = 5 s

Time = 49

smoothSolver:  Solving for Ux, Initial residual = 0.00335026, Final residual = 1.48052e-05, No Iterations 8
smoothSolver:  Solving for Uy, Initial residual = 0.00147649, Final residual = 8.31949e-06, No Iterations 8
GAMG:  Solving for p, Initial residual = 0.00474018, Final residual = 4.02098e-05, No Iterations 4
time step continuity errors : sum local = 1.22119e-05, global = -8.56114e-17, cumulative = 3.28635e-16
smoothSolver:  Solving for nuTilda, Initial residual = 0.00291343, Final residual = 1.36993e-05, No Iterations 8
ExecutionTime = 4.99 s  ClockTime = 5 s

Time = 50

smoothSolver:  Solving for Ux, Initial residual = 0.00328669, Final residual = 1.46168e-05, No Iterations 8
smoothSolver:  Solving for Uy, Initial residual = 0.00146271, Final residual = 8.27332e-06, No Iterations 8
GAMG:  Solving for p, Initial residual = 0.00453938, Final residual = 3.83415e-05, No Iterations 4
time step continuity errors : sum local = 1.16752e-05, global = 1.03966e-16, cumulative = 4.32601e-16
smoothSolver:  Solving for nuTilda, Initial residual = 0.00282705, Final residual = 1.32847e-05, No Iterations 8
ExecutionTime = 5.08 s  ClockTime = 5 s

forces wings output:
    sum of forces:
        pressure : (6.96689 24.2964 3.09282e-18)
        viscous  : (0.355366 -0.10161 -9.02813e-20)
        porous   : (0 0 0)
    sum of moments:
        pressure : (-1.21482 0.348345 0.834012)
        viscous  : (0.00508049 0.0177683 -7.18308e-05)
        porous   : (0 0 0)

Time = 51

smoothSolver:  Solving for Ux, Initial residual = 0.0032196, Final residual = 1.43968e-05, No Iterations 8
smoothSolver:  Solving for Uy, Initial residual = 0.00145675, Final residual = 8.29663e-06, No Iterations 8
GAMG:  Solving for p, Initial residual = 0.00438052, Final residual = 3.06545e-05, No Iterations 4
time step continuity errors : sum local = 9.3591e-06, global = -1.13019e-16, cumulative = 3.19582e-16
smoothSolver:  Solving for nuTilda, Initial residual = 0.00274382, Final residual = 1.28885e-05, No Iterations 8
ExecutionTime = 5.17 s  ClockTime = 5 s

Time = 52

smoothSolver:  Solving for Ux, Initial residual = 0.00315688, Final residual = 1.41535e-05, No Iterations 8
smoothSolver:  Solving for Uy, Initial residual = 0.00144652, Final residual = 8.30428e-06, No Iterations 8
GAMG:  Solving for p, Initial residual = 0.00424885, Final residual = 2.62056e-05, No Iterations 4
time step continuity errors : sum local = 7.96124e-06, global = 8.5455e-17, cumulative = 4.05037e-16
smoothSolver:  Solving for nuTilda, Initial residual = 0.00266482, Final residual = 1.25094e-05, No Iterations 8
ExecutionTime = 5.26 s  ClockTime = 5 s

Time = 53

smoothSolver:  Solving for Ux, Initial residual = 0.00310273, Final residual = 1.39284e-05, No Iterations 8
smoothSolver:  Solving for Uy, Initial residual = 0.00142969, Final residual = 8.26078e-06, No Iterations 8
GAMG:  Solving for p, Initial residual = 0.00410181, Final residual = 2.38731e-05, No Iterations 4
time step continuity errors : sum local = 7.28533e-06, global = 1.68946e-16, cumulative = 5.73982e-16
smoothSolver:  Solving for nuTilda, Initial residual = 0.0025886, Final residual = 1.21488e-05, No Iterations 8
ExecutionTime = 5.34 s  ClockTime = 5 s

Time = 54

smoothSolver:  Solving for Ux, Initial residual = 0.00305822, Final residual = 1.3754e-05, No Iterations 8
smoothSolver:  Solving for Uy, Initial residual = 0.00140849, Final residual = 8.18169e-06, No Iterations 8
GAMG:  Solving for p, Initial residual = 0.00396535, Final residual = 2.56835e-05, No Iterations 4
time step continuity errors : sum local = 7.81397e-06, global = -2.45787e-16, cumulative = 3.28195e-16
smoothSolver:  Solving for nuTilda, Initial residual = 0.00251592, Final residual = 1.18055e-05, No Iterations 8
ExecutionTime = 5.43 s  ClockTime = 5 s

Time = 55

smoothSolver:  Solving for Ux, Initial residual = 0.00301437, Final residual = 1.35954e-05, No Iterations 8
smoothSolver:  Solving for Uy, Initial residual = 0.00139267, Final residual = 8.12834e-06, No Iterations 8
GAMG:  Solving for p, Initial residual = 0.00390288, Final residual = 2.86545e-05, No Iterations 4
time step continuity errors : sum local = 8.70745e-06, global = 4.02204e-17, cumulative = 3.68415e-16
smoothSolver:  Solving for nuTilda, Initial residual = 0.002447, Final residual = 1.1477e-05, No Iterations 8
ExecutionTime = 5.52 s  ClockTime = 6 s

forces wings output:
    sum of forces:
        pressure : (7.15475 24.9515 3.17e-18)
        viscous  : (0.3422 -0.0978726 -9.48559e-20)
        porous   : (0 0 0)
    sum of moments:
        pressure : (-1.24758 0.357737 0.844593)
        viscous  : (0.00489363 0.01711 -7.20074e-05)
        porous   : (0 0 0)

Time = 56

smoothSolver:  Solving for Ux, Initial residual = 0.00297076, Final residual = 1.34431e-05, No Iterations 8
smoothSolver:  Solving for Uy, Initial residual = 0.0013853, Final residual = 8.11062e-06, No Iterations 8
GAMG:  Solving for p, Initial residual = 0.00383268, Final residual = 2.73617e-05, No Iterations 4
time step continuity errors : sum local = 8.29568e-06, global = -3.78092e-16, cumulative = -9.67621e-18
smoothSolver:  Solving for nuTilda, Initial residual = 0.00238143, Final residual = 1.11652e-05, No Iterations 8
ExecutionTime = 5.62 s  ClockTime = 6 s

Time = 57

smoothSolver:  Solving for Ux, Initial residual = 0.00292728, Final residual = 1.32847e-05, No Iterations 8
smoothSolver:  Solving for Uy, Initial residual = 0.00138134, Final residual = 8.11149e-06, No Iterations 8
GAMG:  Solving for p, Initial residual = 0.00375727, Final residual = 2.50432e-05, No Iterations 4
time step continuity errors : sum local = 7.62512e-06, global = 1.35754e-16, cumulative = 1.26078e-16
smoothSolver:  Solving for nuTilda, Initial residual = 0.00231851, Final residual = 1.08647e-05, No Iterations 8
ExecutionTime = 5.71 s  ClockTime = 6 s

Time = 58

smoothSolver:  Solving for Ux, Initial residual = 0.0028839, Final residual = 1.31131e-05, No Iterations 8
smoothSolver:  Solving for Uy, Initial residual = 0.0013738, Final residual = 8.10413e-06, No Iterations 8
GAMG:  Solving for p, Initial residual = 0.00368851, Final residual = 2.11812e-05, No Iterations 4
time step continuity errors : sum local = 6.43186e-06, global = 2.24807e-17, cumulative = 1.48559e-16
smoothSolver:  Solving for nuTilda, Initial residual = 0.00225744, Final residual = 1.05758e-05, No Iterations 8
ExecutionTime = 5.8 s  ClockTime = 6 s

Time = 59

smoothSolver:  Solving for Ux, Initial residual = 0.00284284, Final residual = 1.2941e-05, No Iterations 8
smoothSolver:  Solving for Uy, Initial residual = 0.00136168, Final residual = 8.07547e-06, No Iterations 8
GAMG:  Solving for p, Initial residual = 0.00360763, Final residual = 1.94359e-05, No Iterations 4
time step continuity errors : sum local = 5.92716e-06, global = 1.35592e-16, cumulative = 2.8415e-16
smoothSolver:  Solving for nuTilda, Initial residual = 0.00219826, Final residual = 1.02962e-05, No Iterations 8
ExecutionTime = 5.89 s  ClockTime = 6 s

Time = 60

smoothSolver:  Solving for Ux, Initial residual = 0.00280403, Final residual = 1.2773e-05, No Iterations 8
smoothSolver:  Solving for Uy, Initial residual = 0.00134992, Final residual = 8.03653e-06, No Iterations 8
GAMG:  Solving for p, Initial residual = 0.0035259, Final residual = 2.0523e-05, No Iterations 4
time step continuity errors : sum local = 6.25662e-06, global = 3.18846e-17, cumulative = 3.16035e-16
smoothSolver:  Solving for nuTilda, Initial residual = 0.00214196, Final residual = 1.00261e-05, No Iterations 8
ExecutionTime = 5.98 s  ClockTime = 6 s

forces wings output:
    sum of forces:
        pressure : (7.29639 25.4455 3.23022e-18)
        viscous  : (0.329361 -0.0942187 -9.90232e-20)
        porous   : (0 0 0)
    sum of moments:
        pressure : (-1.27228 0.364819 0.823623)
        viscous  : (0.00471094 0.0164681 -6.79155e-05)
        porous   : (0 0 0)

Time = 61

smoothSolver:  Solving for Ux, Initial residual = 0.00276767, Final residual = 1.26169e-05, No Iterations 8
smoothSolver:  Solving for Uy, Initial residual = 0.00134029, Final residual = 7.9985e-06, No Iterations 8
GAMG:  Solving for p, Initial residual = 0.00346254, Final residual = 2.29719e-05, No Iterations 4
time step continuity errors : sum local = 7.00215e-06, global = -3.39393e-16, cumulative = -2.33577e-17
smoothSolver:  Solving for nuTilda, Initial residual = 0.00208687, Final residual = 9.76671e-06, No Iterations 8
ExecutionTime = 6.07 s  ClockTime = 6 s

Time = 62

smoothSolver:  Solving for Ux, Initial residual = 0.00273284, Final residual = 1.24711e-05, No Iterations 8
smoothSolver:  Solving for Uy, Initial residual = 0.00133253, Final residual = 7.96926e-06, No Iterations 8
GAMG:  Solving for p, Initial residual = 0.00340864, Final residual = 2.54029e-05, No Iterations 4
time step continuity errors : sum local = 7.72434e-06, global = 6.93737e-17, cumulative = 4.6016e-17
smoothSolver:  Solving for nuTilda, Initial residual = 0.0020329, Final residual = 9.51284e-06, No Iterations 8
ExecutionTime = 6.16 s  ClockTime = 6 s

Time = 63

smoothSolver:  Solving for Ux, Initial residual = 0.00269891, Final residual = 1.23321e-05, No Iterations 8
smoothSolver:  Solving for Uy, Initial residual = 0.0013258, Final residual = 7.9475e-06, No Iterations 8
GAMG:  Solving for p, Initial residual = 0.00335776, Final residual = 2.17214e-05, No Iterations 4
time step continuity errors : sum local = 6.59852e-06, global = -9.48983e-17, cumulative = -4.88823e-17
smoothSolver:  Solving for nuTilda, Initial residual = 0.00198072, Final residual = 9.26351e-06, No Iterations 8
ExecutionTime = 6.25 s  ClockTime = 6 s

Time = 64

smoothSolver:  Solving for Ux, Initial residual = 0.00266538, Final residual = 1.21948e-05, No Iterations 8
smoothSolver:  Solving for Uy, Initial residual = 0.00131844, Final residual = 7.9251e-06, No Iterations 8
GAMG:  Solving for p, Initial residual = 0.00331804, Final residual = 2.04552e-05, No Iterations 4
time step continuity errors : sum local = 6.21632e-06, global = 2.33783e-16, cumulative = 1.84901e-16
smoothSolver:  Solving for nuTilda, Initial residual = 0.00193082, Final residual = 9.02492e-06, No Iterations 8
ExecutionTime = 6.34 s  ClockTime = 6 s

Time = 65

smoothSolver:  Solving for Ux, Initial residual = 0.0026318, Final residual = 1.20556e-05, No Iterations 8
smoothSolver:  Solving for Uy, Initial residual = 0.00131034, Final residual = 7.89853e-06, No Iterations 8
GAMG:  Solving for p, Initial residual = 0.00326371, Final residual = 2.0295e-05, No Iterations 4
time step continuity errors : sum local = 6.17317e-06, global = -1.39789e-16, cumulative = 4.51119e-17
smoothSolver:  Solving for nuTilda, Initial residual = 0.00188333, Final residual = 8.79644e-06, No Iterations 8
ExecutionTime = 6.42 s  ClockTime = 6 s

forces wings output:
    sum of forces:
        pressure : (7.50564 26.1753 3.27692e-18)
        viscous  : (0.316957 -0.0906812 -1.02378e-19)
        porous   : (0 0 0)
    sum of moments:
        pressure : (-1.30876 0.375282 0.905928)
        viscous  : (0.00453406 0.0158479 -6.26794e-05)
        porous   : (0 0 0)

Time = 66

smoothSolver:  Solving for Ux, Initial residual = 0.00259897, Final residual = 1.19167e-05, No Iterations 8
smoothSolver:  Solving for Uy, Initial residual = 0.00130187, Final residual = 7.8677e-06, No Iterations 8
GAMG:  Solving for p, Initial residual = 0.0032115, Final residual = 2.07615e-05, No Iterations 4
time step continuity errors : sum local = 6.32076e-06, global = 1.99475e-16, cumulative = 2.44586e-16
smoothSolver:  Solving for nuTilda, Initial residual = 0.00183732, Final residual = 8.57637e-06, No Iterations 8
ExecutionTime = 6.52 s  ClockTime = 7 s

Time = 67

smoothSolver:  Solving for Ux, Initial residual = 0.00256757, Final residual = 1.17833e-05, No Iterations 8
smoothSolver:  Solving for Uy, Initial residual = 0.0012935, Final residual = 7.83502e-06, No Iterations 8
GAMG:  Solving for p, Initial residual = 0.00315451, Final residual = 2.18312e-05, No Iterations 4
time step continuity errors : sum local = 6.64759e-06, global = -1.45751e-16, cumulative = 9.88353e-17
smoothSolver:  Solving for nuTilda, Initial residual = 0.00179325, Final residual = 8.3636e-06, No Iterations 8
ExecutionTime = 6.6 s  ClockTime = 7 s

Time = 68

smoothSolver:  Solving for Ux, Initial residual = 0.00253781, Final residual = 1.16568e-05, No Iterations 8
smoothSolver:  Solving for Uy, Initial residual = 0.00128533, Final residual = 7.80236e-06, No Iterations 8
GAMG:  Solving for p, Initial residual = 0.00310128, Final residual = 2.28004e-05, No Iterations 4
time step continuity errors : sum local = 6.93933e-06, global = 1.23937e-16, cumulative = 2.22772e-16
smoothSolver:  Solving for nuTilda, Initial residual = 0.00175154, Final residual = 8.15956e-06, No Iterations 8
ExecutionTime = 6.7 s  ClockTime = 7 s

Time = 69

smoothSolver:  Solving for Ux, Initial residual = 0.00250932, Final residual = 1.15356e-05, No Iterations 8
smoothSolver:  Solving for Uy, Initial residual = 0.00127751, Final residual = 7.77103e-06, No Iterations 8
GAMG:  Solving for p, Initial residual = 0.00304746, Final residual = 2.2693e-05, No Iterations 4
time step continuity errors : sum local = 6.90195e-06, global = -6.22568e-17, cumulative = 1.60515e-16
smoothSolver:  Solving for nuTilda, Initial residual = 0.00171143, Final residual = 7.96264e-06, No Iterations 8
ExecutionTime = 6.79 s  ClockTime = 7 s

Time = 70

smoothSolver:  Solving for Ux, Initial residual = 0.00248136, Final residual = 1.14169e-05, No Iterations 8
smoothSolver:  Solving for Uy, Initial residual = 0.00126989, Final residual = 7.7405e-06, No Iterations 8
GAMG:  Solving for p, Initial residual = 0.00298982, Final residual = 2.16676e-05, No Iterations 4
time step continuity errors : sum local = 6.58742e-06, global = -2.88392e-17, cumulative = 1.31676e-16
smoothSolver:  Solving for nuTilda, Initial residual = 0.0016717, Final residual = 7.76986e-06, No Iterations 8
ExecutionTime = 6.88 s  ClockTime = 7 s

forces wings output:
    sum of forces:
        pressure : (7.71765 26.9146 3.31307e-18)
        viscous  : (0.304975 -0.0872707 -1.05421e-19)
        porous   : (0 0 0)
    sum of moments:
        pressure : (-1.34573 0.385883 0.971824)
        viscous  : (0.00436353 0.0152488 -5.56065e-05)
        porous   : (0 0 0)

Time = 71

smoothSolver:  Solving for Ux, Initial residual = 0.0024535, Final residual = 1.12983e-05, No Iterations 8
smoothSolver:  Solving for Uy, Initial residual = 0.00126256, Final residual = 7.71011e-06, No Iterations 8
GAMG:  Solving for p, Initial residual = 0.00292964, Final residual = 2.05564e-05, No Iterations 4
time step continuity errors : sum local = 6.24976e-06, global = -1.8566e-16, cumulative = -5.3984e-17
smoothSolver:  Solving for nuTilda, Initial residual = 0.00163311, Final residual = 7.58267e-06, No Iterations 8
ExecutionTime = 6.97 s  ClockTime = 7 s

Time = 72

smoothSolver:  Solving for Ux, Initial residual = 0.00242588, Final residual = 1.11797e-05, No Iterations 8
smoothSolver:  Solving for Uy, Initial residual = 0.00125529, Final residual = 7.67865e-06, No Iterations 8
GAMG:  Solving for p, Initial residual = 0.00287228, Final residual = 2.00914e-05, No Iterations 4
time step continuity errors : sum local = 6.10936e-06, global = 7.90922e-17, cumulative = 2.51081e-17
smoothSolver:  Solving for nuTilda, Initial residual = 0.00159562, Final residual = 7.40273e-06, No Iterations 8
ExecutionTime = 7.06 s  ClockTime = 7 s

Time = 73

smoothSolver:  Solving for Ux, Initial residual = 0.00239895, Final residual = 1.10639e-05, No Iterations 8
smoothSolver:  Solving for Uy, Initial residual = 0.001248, Final residual = 7.64612e-06, No Iterations 8
GAMG:  Solving for p, Initial residual = 0.00281983, Final residual = 2.02339e-05, No Iterations 4
time step continuity errors : sum local = 6.1534e-06, global = 1.69365e-16, cumulative = 1.94473e-16
smoothSolver:  Solving for nuTilda, Initial residual = 0.00155875, Final residual = 7.22956e-06, No Iterations 8
ExecutionTime = 7.14 s  ClockTime = 7 s

Time = 74

smoothSolver:  Solving for Ux, Initial residual = 0.0023732, Final residual = 1.09524e-05, No Iterations 8
smoothSolver:  Solving for Uy, Initial residual = 0.00124052, Final residual = 7.61258e-06, No Iterations 8
GAMG:  Solving for p, Initial residual = 0.00277169, Final residual = 2.072e-05, No Iterations 4
time step continuity errors : sum local = 6.30156e-06, global = 5.47506e-17, cumulative = 2.49223e-16
smoothSolver:  Solving for nuTilda, Initial residual = 0.00152281, Final residual = 7.06116e-06, No Iterations 8
ExecutionTime = 7.23 s  ClockTime = 7 s

Time = 75

smoothSolver:  Solving for Ux, Initial residual = 0.00234859, Final residual = 1.08456e-05, No Iterations 8
smoothSolver:  Solving for Uy, Initial residual = 0.00123297, Final residual = 7.57851e-06, No Iterations 8
GAMG:  Solving for p, Initial residual = 0.00272521, Final residual = 2.11514e-05, No Iterations 4
time step continuity errors : sum local = 6.43273e-06, global = -1.76543e-16, cumulative = 7.26805e-17
smoothSolver:  Solving for nuTilda, Initial residual = 0.00148792, Final residual = 6.89691e-06, No Iterations 8
ExecutionTime = 7.32 s  ClockTime = 7 s

forces wings output:
    sum of forces:
        pressure : (7.91185 27.5919 3.34116e-18)
        viscous  : (0.293434 -0.083982 -1.07945e-19)
        porous   : (0 0 0)
    sum of moments:
        pressure : (-1.37959 0.395592 1.00826)
        viscous  : (0.0041991 0.0146717 -5.00363e-05)
        porous   : (0 0 0)

Time = 76

smoothSolver:  Solving for Ux, Initial residual = 0.00232494, Final residual = 1.07418e-05, No Iterations 8
smoothSolver:  Solving for Uy, Initial residual = 0.0012254, Final residual = 7.5441e-06, No Iterations 8
GAMG:  Solving for p, Initial residual = 0.00267872, Final residual = 2.11323e-05, No Iterations 4
time step continuity errors : sum local = 6.42778e-06, global = 9.6185e-17, cumulative = 1.68866e-16
smoothSolver:  Solving for nuTilda, Initial residual = 0.00145447, Final residual = 6.73958e-06, No Iterations 8
ExecutionTime = 7.41 s  ClockTime = 7 s

Time = 77

smoothSolver:  Solving for Ux, Initial residual = 0.00230177, Final residual = 1.06399e-05, No Iterations 8
smoothSolver:  Solving for Uy, Initial residual = 0.00121801, Final residual = 7.50982e-06, No Iterations 8
GAMG:  Solving for p, Initial residual = 0.00263312, Final residual = 2.07633e-05, No Iterations 4
time step continuity errors : sum local = 6.31773e-06, global = -5.33911e-18, cumulative = 1.63526e-16
smoothSolver:  Solving for nuTilda, Initial residual = 0.00142187, Final residual = 6.58735e-06, No Iterations 8
ExecutionTime = 7.5 s  ClockTime = 7 s

Time = 78

smoothSolver:  Solving for Ux, Initial residual = 0.00227882, Final residual = 1.0539e-05, No Iterations 8
smoothSolver:  Solving for Uy, Initial residual = 0.00121078, Final residual = 7.4754e-06, No Iterations 8
GAMG:  Solving for p, Initial residual = 0.00258896, Final residual = 2.03198e-05, No Iterations 4
time step continuity errors : sum local = 6.18534e-06, global = 1.83306e-16, cumulative = 3.46832e-16
smoothSolver:  Solving for nuTilda, Initial residual = 0.00139068, Final residual = 6.43811e-06, No Iterations 8
ExecutionTime = 7.59 s  ClockTime = 8 s

Time = 79

smoothSolver:  Solving for Ux, Initial residual = 0.00225614, Final residual = 1.04388e-05, No Iterations 8
smoothSolver:  Solving for Uy, Initial residual = 0.00120369, Final residual = 7.44045e-06, No Iterations 8
GAMG:  Solving for p, Initial residual = 0.00254868, Final residual = 1.99202e-05, No Iterations 4
time step continuity errors : sum local = 6.06457e-06, global = -5.08237e-17, cumulative = 2.96009e-16
smoothSolver:  Solving for nuTilda, Initial residual = 0.0013608, Final residual = 6.29392e-06, No Iterations 8
ExecutionTime = 7.67 s  ClockTime = 8 s

Time = 80

smoothSolver:  Solving for Ux, Initial residual = 0.00223411, Final residual = 1.03405e-05, No Iterations 8
smoothSolver:  Solving for Uy, Initial residual = 0.00119652, Final residual = 7.40443e-06, No Iterations 8
GAMG:  Solving for p, Initial residual = 0.00251116, Final residual = 1.9715e-05, No Iterations 4
time step continuity errors : sum local = 6.00255e-06, global = -1.16722e-16, cumulative = 1.79287e-16
smoothSolver:  Solving for nuTilda, Initial residual = 0.00133129, Final residual = 6.15535e-06, No Iterations 8
ExecutionTime = 7.76 s  ClockTime = 8 s

forces wings output:
    sum of forces:
        pressure : (8.11628 28.3048 3.36321e-18)
        viscous  : (0.282325 -0.0808184 -1.10163e-19)
        porous   : (0 0 0)
    sum of moments:
        pressure : (-1.41524 0.405814 1.05627)
        viscous  : (0.00404092 0.0141162 -4.4636e-05)
        porous   : (0 0 0)

Time = 81

smoothSolver:  Solving for Ux, Initial residual = 0.00221292, Final residual = 1.02452e-05, No Iterations 8
smoothSolver:  Solving for Uy, Initial residual = 0.00118924, Final residual = 7.3672e-06, No Iterations 8
GAMG:  Solving for p, Initial residual = 0.00247562, Final residual = 1.96453e-05, No Iterations 4
time step continuity errors : sum local = 5.98195e-06, global = 1.08959e-16, cumulative = 2.88246e-16
smoothSolver:  Solving for nuTilda, Initial residual = 0.00130246, Final residual = 6.02124e-06, No Iterations 8
ExecutionTime = 7.86 s  ClockTime = 8 s

Time = 82

smoothSolver:  Solving for Ux, Initial residual = 0.00219251, Final residual = 1.01525e-05, No Iterations 8
smoothSolver:  Solving for Uy, Initial residual = 0.00118181, Final residual = 7.3288e-06, No Iterations 8
GAMG:  Solving for p, Initial residual = 0.00244119, Final residual = 1.9609e-05, No Iterations 4
time step continuity errors : sum local = 5.97246e-06, global = 4.96737e-17, cumulative = 3.3792e-16
smoothSolver:  Solving for nuTilda, Initial residual = 0.00127483, Final residual = 5.89193e-06, No Iterations 8
ExecutionTime = 7.94 s  ClockTime = 8 s

Time = 83

smoothSolver:  Solving for Ux, Initial residual = 0.00217273, Final residual = 1.00621e-05, No Iterations 8
smoothSolver:  Solving for Uy, Initial residual = 0.00117447, Final residual = 7.28998e-06, No Iterations 8
GAMG:  Solving for p, Initial residual = 0.00240854, Final residual = 1.95434e-05, No Iterations 4
time step continuity errors : sum local = 5.95493e-06, global = 1.69457e-18, cumulative = 3.39614e-16
smoothSolver:  Solving for nuTilda, Initial residual = 0.00124851, Final residual = 5.7678e-06, No Iterations 8
ExecutionTime = 8.03 s  ClockTime = 8 s

Time = 84

smoothSolver:  Solving for Ux, Initial residual = 0.00215338, Final residual = 9.97306e-06, No Iterations 8
smoothSolver:  Solving for Uy, Initial residual = 0.00116727, Final residual = 7.25122e-06, No Iterations 8
GAMG:  Solving for p, Initial residual = 0.0023777, Final residual = 1.94833e-05, No Iterations 4
time step continuity errors : sum local = 5.93961e-06, global = 8.86399e-17, cumulative = 4.28254e-16
smoothSolver:  Solving for nuTilda, Initial residual = 0.00122339, Final residual = 5.64541e-06, No Iterations 8
ExecutionTime = 8.12 s  ClockTime = 8 s

Time = 85

smoothSolver:  Solving for Ux, Initial residual = 0.00213428, Final residual = 9.88502e-06, No Iterations 8
smoothSolver:  Solving for Uy, Initial residual = 0.00116026, Final residual = 7.21265e-06, No Iterations 8
GAMG:  Solving for p, Initial residual = 0.00234885, Final residual = 1.95035e-05, No Iterations 4
time step continuity errors : sum local = 5.94848e-06, global = -3.34861e-17, cumulative = 3.94768e-16
smoothSolver:  Solving for nuTilda, Initial residual = 0.00119825, Final residual = 5.52686e-06, No Iterations 8
ExecutionTime = 8.21 s  ClockTime = 8 s

forces wings output:
    sum of forces:
        pressure : (8.326 29.0362 3.38177e-18)
        viscous  : (0.271686 -0.0777794 -1.11983e-19)
        porous   : (0 0 0)
    sum of moments:
        pressure : (-1.45181 0.4163 1.10681)
        viscous  : (0.00388897 0.0135843 -4.15319e-05)
        porous   : (0 0 0)

Time = 86

smoothSolver:  Solving for Ux, Initial residual = 0.00211553, Final residual = 9.79807e-06, No Iterations 8
smoothSolver:  Solving for Uy, Initial residual = 0.00115324, Final residual = 7.17356e-06, No Iterations 8
GAMG:  Solving for p, Initial residual = 0.00232086, Final residual = 1.9641e-05, No Iterations 4
time step continuity errors : sum local = 5.99301e-06, global = 2.10582e-16, cumulative = 6.0535e-16
smoothSolver:  Solving for nuTilda, Initial residual = 0.00117426, Final residual = 5.41229e-06, No Iterations 8
ExecutionTime = 8.3 s  ClockTime = 8 s

Time = 87

smoothSolver:  Solving for Ux, Initial residual = 0.00209724, Final residual = 9.71262e-06, No Iterations 8
smoothSolver:  Solving for Uy, Initial residual = 0.00114611, Final residual = 7.13345e-06, No Iterations 8
GAMG:  Solving for p, Initial residual = 0.00229525, Final residual = 1.98462e-05, No Iterations 4
time step continuity errors : sum local = 6.05808e-06, global = 2.10044e-17, cumulative = 6.26355e-16
smoothSolver:  Solving for nuTilda, Initial residual = 0.00115053, Final residual = 5.3002e-06, No Iterations 8
ExecutionTime = 8.38 s  ClockTime = 8 s

Time = 88

smoothSolver:  Solving for Ux, Initial residual = 0.00207953, Final residual = 9.62894e-06, No Iterations 8
smoothSolver:  Solving for Uy, Initial residual = 0.00113884, Final residual = 7.09217e-06, No Iterations 8
GAMG:  Solving for p, Initial residual = 0.00226985, Final residual = 2.00329e-05, No Iterations 4
time step continuity errors : sum local = 6.11764e-06, global = 7.84165e-17, cumulative = 7.04771e-16
smoothSolver:  Solving for nuTilda, Initial residual = 0.0011275, Final residual = 5.19102e-06, No Iterations 8
ExecutionTime = 8.48 s  ClockTime = 8 s

Time = 89

smoothSolver:  Solving for Ux, Initial residual = 0.00206226, Final residual = 9.547e-06, No Iterations 8
smoothSolver:  Solving for Uy, Initial residual = 0.00113153, Final residual = 7.05018e-06, No Iterations 8
GAMG:  Solving for p, Initial residual = 0.00224471, Final residual = 2.01803e-05, No Iterations 4
time step continuity errors : sum local = 6.16568e-06, global = -2.82393e-18, cumulative = 7.01947e-16
smoothSolver:  Solving for nuTilda, Initial residual = 0.00110506, Final residual = 5.08429e-06, No Iterations 8
ExecutionTime = 8.57 s  ClockTime = 9 s

Time = 90

smoothSolver:  Solving for Ux, Initial residual = 0.00204535, Final residual = 9.46647e-06, No Iterations 8
smoothSolver:  Solving for Uy, Initial residual = 0.00112423, Final residual = 7.00761e-06, No Iterations 8
GAMG:  Solving for p, Initial residual = 0.00221972, Final residual = 2.03953e-05, No Iterations 4
time step continuity errors : sum local = 6.23536e-06, global = -1.46601e-16, cumulative = 5.55346e-16
smoothSolver:  Solving for nuTilda, Initial residual = 0.00108282, Final residual = 4.97901e-06, No Iterations 8
ExecutionTime = 8.66 s  ClockTime = 9 s

forces wings output:
    sum of forces:
        pressure : (8.53381 29.7609 3.39717e-18)
        viscous  : (0.261679 -0.0749183 -1.13769e-19)
        porous   : (0 0 0)
    sum of moments:
        pressure : (-1.48805 0.426691 1.1527)
        viscous  : (0.00374592 0.013084 -3.94074e-05)
        porous   : (0 0 0)

Time = 91

smoothSolver:  Solving for Ux, Initial residual = 0.00202875, Final residual = 9.38721e-06, No Iterations 8
smoothSolver:  Solving for Uy, Initial residual = 0.00111705, Final residual = 6.96492e-06, No Iterations 8
GAMG:  Solving for p, Initial residual = 0.00219675, Final residual = 2.068e-05, No Iterations 4
time step continuity errors : sum local = 6.32641e-06, global = -1.68738e-16, cumulative = 3.86608e-16
smoothSolver:  Solving for nuTilda, Initial residual = 0.00106133, Final residual = 4.8756e-06, No Iterations 8
ExecutionTime = 8.76 s  ClockTime = 9 s

Time = 92

smoothSolver:  Solving for Ux, Initial residual = 0.00201242, Final residual = 9.30866e-06, No Iterations 8
smoothSolver:  Solving for Uy, Initial residual = 0.00110997, Final residual = 6.9222e-06, No Iterations 8
GAMG:  Solving for p, Initial residual = 0.00217505, Final residual = 2.10216e-05, No Iterations 4
time step continuity errors : sum local = 6.43439e-06, global = -1.82875e-16, cumulative = 2.03733e-16
smoothSolver:  Solving for nuTilda, Initial residual = 0.00104013, Final residual = 4.77467e-06, No Iterations 8
ExecutionTime = 8.84 s  ClockTime = 9 s

Time = 93

smoothSolver:  Solving for Ux, Initial residual = 0.00199633, Final residual = 9.23125e-06, No Iterations 8
smoothSolver:  Solving for Uy, Initial residual = 0.00110288, Final residual = 6.87906e-06, No Iterations 8
GAMG:  Solving for p, Initial residual = 0.00215714, Final residual = 2.12391e-05, No Iterations 4
time step continuity errors : sum local = 6.50301e-06, global = 1.91708e-16, cumulative = 3.95441e-16
smoothSolver:  Solving for nuTilda, Initial residual = 0.00101963, Final residual = 4.67766e-06, No Iterations 8
ExecutionTime = 8.93 s  ClockTime = 9 s

Time = 94

smoothSolver:  Solving for Ux, Initial residual = 0.00198053, Final residual = 9.15518e-06, No Iterations 8
smoothSolver:  Solving for Uy, Initial residual = 0.00109564, Final residual = 6.83501e-06, No Iterations 8
GAMG:  Solving for p, Initial residual = 0.00213964, Final residual = 2.12767e-05, No Iterations 4
time step continuity errors : sum local = 6.51638e-06, global = -1.91522e-17, cumulative = 3.76289e-16
smoothSolver:  Solving for nuTilda, Initial residual = 0.000999767, Final residual = 4.58421e-06, No Iterations 8
ExecutionTime = 9.02 s  ClockTime = 9 s

Time = 95

smoothSolver:  Solving for Ux, Initial residual = 0.00196502, Final residual = 9.0807e-06, No Iterations 8
smoothSolver:  Solving for Uy, Initial residual = 0.0010883, Final residual = 6.79013e-06, No Iterations 8
GAMG:  Solving for p, Initial residual = 0.0021235, Final residual = 2.11813e-05, No Iterations 4
time step continuity errors : sum local = 6.48985e-06, global = -1.20664e-16, cumulative = 2.55625e-16
smoothSolver:  Solving for nuTilda, Initial residual = 0.000980502, Final residual = 4.49303e-06, No Iterations 8
ExecutionTime = 9.11 s  ClockTime = 9 s

forces wings output:
    sum of forces:
        pressure : (8.73956 30.4784 3.41089e-18)
        viscous  : (0.252523 -0.0723017 -1.15404e-19)
        porous   : (0 0 0)
    sum of moments:
        pressure : (-1.52392 0.436978 1.19837)
        viscous  : (0.00361508 0.0126262 -3.72711e-05)
        porous   : (0 0 0)

Time = 96

smoothSolver:  Solving for Ux, Initial residual = 0.00194981, Final residual = 9.00765e-06, No Iterations 8
smoothSolver:  Solving for Uy, Initial residual = 0.00108089, Final residual = 6.74464e-06, No Iterations 8
GAMG:  Solving for p, Initial residual = 0.00210832, Final residual = 1.39137e-05, No Iterations 5
time step continuity errors : sum local = 4.28931e-06, global = 4.8687e-18, cumulative = 2.60494e-16
smoothSolver:  Solving for nuTilda, Initial residual = 0.000961693, Final residual = 4.40492e-06, No Iterations 8
ExecutionTime = 9.2 s  ClockTime = 9 s

Time = 97

smoothSolver:  Solving for Ux, Initial residual = 0.00193526, Final residual = 8.93913e-06, No Iterations 8
smoothSolver:  Solving for Uy, Initial residual = 0.00107311, Final residual = 6.69758e-06, No Iterations 8
GAMG:  Solving for p, Initial residual = 0.00209258, Final residual = 2.08238e-05, No Iterations 4
time step continuity errors : sum local = 6.39373e-06, global = 8.79887e-17, cumulative = 3.48482e-16
smoothSolver:  Solving for nuTilda, Initial residual = 0.000943457, Final residual = 4.31908e-06, No Iterations 8
ExecutionTime = 9.29 s  ClockTime = 9 s

Time = 98

smoothSolver:  Solving for Ux, Initial residual = 0.00192017, Final residual = 8.86579e-06, No Iterations 8
smoothSolver:  Solving for Uy, Initial residual = 0.00106597, Final residual = 6.6522e-06, No Iterations 8
GAMG:  Solving for p, Initial residual = 0.00207682, Final residual = 9.12832e-06, No Iterations 5
time step continuity errors : sum local = 2.79498e-06, global = -6.718e-17, cumulative = 2.81302e-16
smoothSolver:  Solving for nuTilda, Initial residual = 0.000925567, Final residual = 4.23651e-06, No Iterations 8
ExecutionTime = 9.38 s  ClockTime = 9 s

Time = 99

smoothSolver:  Solving for Ux, Initial residual = 0.00190551, Final residual = 8.79512e-06, No Iterations 8
smoothSolver:  Solving for Uy, Initial residual = 0.00105864, Final residual = 6.60603e-06, No Iterations 8
GAMG:  Solving for p, Initial residual = 0.00206122, Final residual = 1.01819e-05, No Iterations 5
time step continuity errors : sum local = 3.12236e-06, global = -2.87889e-17, cumulative = 2.52514e-16
smoothSolver:  Solving for nuTilda, Initial residual = 0.00090821, Final residual = 4.15637e-06, No Iterations 8
ExecutionTime = 9.48 s  ClockTime = 9 s

Time = 100

smoothSolver:  Solving for Ux, Initial residual = 0.00189071, Final residual = 8.72363e-06, No Iterations 8
smoothSolver:  Solving for Uy, Initial residual = 0.0010517, Final residual = 6.56109e-06, No Iterations 8
GAMG:  Solving for p, Initial residual = 0.00204588, Final residual = 1.14414e-05, No Iterations 5
time step continuity errors : sum local = 3.52675e-06, global = 9.30768e-17, cumulative = 3.4559e-16
smoothSolver:  Solving for nuTilda, Initial residual = 0.000891287, Final residual = 4.07804e-06, No Iterations 8
ExecutionTime = 9.57 s  ClockTime = 10 s

forces wings output:
    sum of forces:
        pressure : (8.94039 31.1788 3.42793e-18)
        viscous  : (0.24397 -0.0698544 -1.173e-19)
        porous   : (0 0 0)
    sum of moments:
        pressure : (-1.55894 0.447019 1.24017)
        viscous  : (0.00349272 0.0121985 -3.60626e-05)
        porous   : (0 0 0)

Time = 101

smoothSolver:  Solving for Ux, Initial residual = 0.00187632, Final residual = 8.65472e-06, No Iterations 8
smoothSolver:  Solving for Uy, Initial residual = 0.00104446, Final residual = 6.51478e-06, No Iterations 8
GAMG:  Solving for p, Initial residual = 0.00203216, Final residual = 1.29201e-05, No Iterations 5
time step continuity errors : sum local = 3.98509e-06, global = 4.75964e-17, cumulative = 3.93187e-16
smoothSolver:  Solving for nuTilda, Initial residual = 0.000874736, Final residual = 4.00181e-06, No Iterations 8
ExecutionTime = 9.67 s  ClockTime = 10 s

Time = 102

smoothSolver:  Solving for Ux, Initial residual = 0.00186247, Final residual = 8.58964e-06, No Iterations 8
smoothSolver:  Solving for Uy, Initial residual = 0.00103658, Final residual = 6.46589e-06, No Iterations 8
GAMG:  Solving for p, Initial residual = 0.00201835, Final residual = 1.15299e-05, No Iterations 5
time step continuity errors : sum local = 3.55262e-06, global = 2.50006e-16, cumulative = 6.43193e-16
smoothSolver:  Solving for nuTilda, Initial residual = 0.000858457, Final residual = 3.92798e-06, No Iterations 8
ExecutionTime = 9.76 s  ClockTime = 10 s

Time = 103

smoothSolver:  Solving for Ux, Initial residual = 0.00184887, Final residual = 8.52519e-06, No Iterations 8
smoothSolver:  Solving for Uy, Initial residual = 0.00102857, Final residual = 6.41618e-06, No Iterations 8
GAMG:  Solving for p, Initial residual = 0.00200501, Final residual = 1.14423e-05, No Iterations 5
time step continuity errors : sum local = 3.52652e-06, global = 6.14142e-17, cumulative = 7.04607e-16
smoothSolver:  Solving for nuTilda, Initial residual = 0.000842523, Final residual = 3.85642e-06, No Iterations 8
ExecutionTime = 9.85 s  ClockTime = 10 s

Time = 104

smoothSolver:  Solving for Ux, Initial residual = 0.00183514, Final residual = 8.45976e-06, No Iterations 8
smoothSolver:  Solving for Uy, Initial residual = 0.00102089, Final residual = 6.36738e-06, No Iterations 8
GAMG:  Solving for p, Initial residual = 0.00199125, Final residual = 1.16056e-05, No Iterations 5
time step continuity errors : sum local = 3.58349e-06, global = -5.69781e-17, cumulative = 6.47629e-16
smoothSolver:  Solving for nuTilda, Initial residual = 0.000827118, Final residual = 3.787e-06, No Iterations 8
ExecutionTime = 9.95 s  ClockTime = 10 s

Time = 105

smoothSolver:  Solving for Ux, Initial residual = 0.00182133, Final residual = 8.39367e-06, No Iterations 8
smoothSolver:  Solving for Uy, Initial residual = 0.00101358, Final residual = 6.31984e-06, No Iterations 8
GAMG:  Solving for p, Initial residual = 0.00197733, Final residual = 1.19556e-05, No Iterations 5
time step continuity errors : sum local = 3.7021e-06, global = -2.57992e-17, cumulative = 6.2183e-16
smoothSolver:  Solving for nuTilda, Initial residual = 0.000812066, Final residual = 3.719e-06, No Iterations 8
ExecutionTime = 10.04 s  ClockTime = 10 s

forces wings output:
    sum of forces:
        pressure : (9.14478 31.8916 3.44278e-18)
        viscous  : (0.235825 -0.0675198 -1.19111e-19)
        porous   : (0 0 0)
    sum of moments:
        pressure : (-1.59458 0.457239 1.28357)
        viscous  : (0.00337599 0.0117913 -3.57799e-05)
        porous   : (0 0 0)

Time = 106

smoothSolver:  Solving for Ux, Initial residual = 0.00180764, Final residual = 8.32858e-06, No Iterations 8
smoothSolver:  Solving for Uy, Initial residual = 0.00100623, Final residual = 6.27219e-06, No Iterations 8
GAMG:  Solving for p, Initial residual = 0.00196266, Final residual = 1.29414e-05, No Iterations 5
time step continuity errors : sum local = 4.00248e-06, global = -2.53069e-16, cumulative = 3.68761e-16
smoothSolver:  Solving for nuTilda, Initial residual = 0.000797259, Final residual = 3.65196e-06, No Iterations 8
ExecutionTime = 10.13 s  ClockTime = 10 s

Time = 107

smoothSolver:  Solving for Ux, Initial residual = 0.00179428, Final residual = 8.26625e-06, No Iterations 8
smoothSolver:  Solving for Uy, Initial residual = 0.00099854, Final residual = 6.2232e-06, No Iterations 8
GAMG:  Solving for p, Initial residual = 0.0019486, Final residual = 1.1348e-05, No Iterations 5
time step continuity errors : sum local = 3.50614e-06, global = 1.30914e-16, cumulative = 4.99675e-16
smoothSolver:  Solving for nuTilda, Initial residual = 0.000782879, Final residual = 3.58625e-06, No Iterations 8
ExecutionTime = 10.22 s  ClockTime = 10 s

Time = 108

smoothSolver:  Solving for Ux, Initial residual = 0.00178116, Final residual = 8.20452e-06, No Iterations 8
smoothSolver:  Solving for Uy, Initial residual = 0.00099059, Final residual = 6.17309e-06, No Iterations 8
GAMG:  Solving for p, Initial residual = 0.00193373, Final residual = 1.14517e-05, No Iterations 5
time step continuity errors : sum local = 3.54191e-06, global = -1.37185e-16, cumulative = 3.6249e-16
smoothSolver:  Solving for nuTilda, Initial residual = 0.000768923, Final residual = 3.52232e-06, No Iterations 8
ExecutionTime = 10.32 s  ClockTime = 10 s

Time = 109

smoothSolver:  Solving for Ux, Initial residual = 0.00176808, Final residual = 8.14292e-06, No Iterations 8
smoothSolver:  Solving for Uy, Initial residual = 0.000982682, Final residual = 6.12284e-06, No Iterations 8
GAMG:  Solving for p, Initial residual = 0.00191933, Final residual = 1.1854e-05, No Iterations 5
time step continuity errors : sum local = 3.67746e-06, global = 6.23067e-17, cumulative = 4.24797e-16
smoothSolver:  Solving for nuTilda, Initial residual = 0.000755447, Final residual = 3.46021e-06, No Iterations 8
ExecutionTime = 10.41 s  ClockTime = 10 s

Time = 110

smoothSolver:  Solving for Ux, Initial residual = 0.00175495, Final residual = 8.08105e-06, No Iterations 8
smoothSolver:  Solving for Uy, Initial residual = 0.000974895, Final residual = 6.07304e-06, No Iterations 8
GAMG:  Solving for p, Initial residual = 0.00190386, Final residual = 1.28638e-05, No Iterations 5
time step continuity errors : sum local = 3.98748e-06, global = 2.03539e-16, cumulative = 6.28336e-16
smoothSolver:  Solving for nuTilda, Initial residual = 0.000742671, Final residual = 3.40053e-06, No Iterations 8
ExecutionTime = 10.5 s  ClockTime = 10 s

forces wings output:
    sum of forces:
        pressure : (9.34233 32.5805 3.46783e-18)
        viscous  : (0.228038 -0.065289 -1.21565e-19)
        porous   : (0 0 0)
    sum of moments:
        pressure : (-1.62903 0.467116 1.3213)
        viscous  : (0.00326445 0.0114019 -3.52796e-05)
        porous   : (0 0 0)

Time = 111

smoothSolver:  Solving for Ux, Initial residual = 0.00174192, Final residual = 8.02004e-06, No Iterations 8
smoothSolver:  Solving for Uy, Initial residual = 0.000967202, Final residual = 6.0234e-06, No Iterations 8
GAMG:  Solving for p, Initial residual = 0.0018887, Final residual = 1.13344e-05, No Iterations 5
time step continuity errors : sum local = 3.51252e-06, global = 8.01769e-17, cumulative = 7.08512e-16
smoothSolver:  Solving for nuTilda, Initial residual = 0.000730464, Final residual = 3.34254e-06, No Iterations 8
ExecutionTime = 10.6 s  ClockTime = 11 s

Time = 112

smoothSolver:  Solving for Ux, Initial residual = 0.00172897, Final residual = 7.95892e-06, No Iterations 8
smoothSolver:  Solving for Uy, Initial residual = 0.000959487, Final residual = 5.97389e-06, No Iterations 8
GAMG:  Solving for p, Initial residual = 0.00187258, Final residual = 1.14686e-05, No Iterations 5
time step continuity errors : sum local = 3.55887e-06, global = -1.19891e-17, cumulative = 6.96523e-16
smoothSolver:  Solving for nuTilda, Initial residual = 0.000718417, Final residual = 3.28534e-06, No Iterations 8
ExecutionTime = 10.69 s  ClockTime = 11 s

Time = 113

smoothSolver:  Solving for Ux, Initial residual = 0.00171609, Final residual = 7.89838e-06, No Iterations 8
smoothSolver:  Solving for Uy, Initial residual = 0.000951801, Final residual = 5.92421e-06, No Iterations 8
GAMG:  Solving for p, Initial residual = 0.00185684, Final residual = 1.18863e-05, No Iterations 5
time step continuity errors : sum local = 3.6994e-06, global = -6.1406e-17, cumulative = 6.35117e-16
smoothSolver:  Solving for nuTilda, Initial residual = 0.000706725, Final residual = 3.23034e-06, No Iterations 8
ExecutionTime = 10.78 s  ClockTime = 11 s

Time = 114

smoothSolver:  Solving for Ux, Initial residual = 0.00170333, Final residual = 7.83842e-06, No Iterations 8
smoothSolver:  Solving for Uy, Initial residual = 0.000943909, Final residual = 5.87349e-06, No Iterations 8
GAMG:  Solving for p, Initial residual = 0.00183843, Final residual = 1.32619e-05, No Iterations 5
time step continuity errors : sum local = 4.12383e-06, global = 1.787e-16, cumulative = 8.13817e-16
smoothSolver:  Solving for nuTilda, Initial residual = 0.000695493, Final residual = 3.17747e-06, No Iterations 8
ExecutionTime = 10.88 s  ClockTime = 11 s

Time = 115

smoothSolver:  Solving for Ux, Initial residual = 0.00169067, Final residual = 7.78005e-06, No Iterations 8
smoothSolver:  Solving for Uy, Initial residual = 0.000935828, Final residual = 5.82168e-06, No Iterations 8
GAMG:  Solving for p, Initial residual = 0.00181965, Final residual = 1.12137e-05, No Iterations 5
time step continuity errors : sum local = 3.48566e-06, global = 6.11553e-17, cumulative = 8.74973e-16
smoothSolver:  Solving for nuTilda, Initial residual = 0.00068452, Final residual = 3.12603e-06, No Iterations 8
ExecutionTime = 10.97 s  ClockTime = 11 s

forces wings output:
    sum of forces:
        pressure : (9.53274 33.2446 3.48592e-18)
        viscous  : (0.220696 -0.0631772 -1.23712e-19)
        porous   : (0 0 0)
    sum of moments:
        pressure : (-1.66223 0.476637 1.35402)
        viscous  : (0.00315886 0.0110348 -3.68431e-05)
        porous   : (0 0 0)

Time = 116

smoothSolver:  Solving for Ux, Initial residual = 0.00167815, Final residual = 7.72163e-06, No Iterations 8
smoothSolver:  Solving for Uy, Initial residual = 0.000927629, Final residual = 5.76955e-06, No Iterations 8
GAMG:  Solving for p, Initial residual = 0.00180226, Final residual = 1.12983e-05, No Iterations 5
time step continuity errors : sum local = 3.51895e-06, global = -1.31072e-16, cumulative = 7.439e-16
smoothSolver:  Solving for nuTilda, Initial residual = 0.000673684, Final residual = 3.07535e-06, No Iterations 8
ExecutionTime = 11.07 s  ClockTime = 11 s

Time = 117

smoothSolver:  Solving for Ux, Initial residual = 0.00166563, Final residual = 7.66358e-06, No Iterations 8
smoothSolver:  Solving for Uy, Initial residual = 0.000919553, Final residual = 5.71777e-06, No Iterations 8
GAMG:  Solving for p, Initial residual = 0.00178384, Final residual = 1.20387e-05, No Iterations 5
time step continuity errors : sum local = 3.74473e-06, global = 1.66878e-16, cumulative = 9.10778e-16
smoothSolver:  Solving for nuTilda, Initial residual = 0.000663087, Final residual = 3.02551e-06, No Iterations 8
ExecutionTime = 11.16 s  ClockTime = 11 s

Time = 118

smoothSolver:  Solving for Ux, Initial residual = 0.00165313, Final residual = 7.60625e-06, No Iterations 8
smoothSolver:  Solving for Uy, Initial residual = 0.000911475, Final residual = 5.66632e-06, No Iterations 8
GAMG:  Solving for p, Initial residual = 0.00176623, Final residual = 1.09599e-05, No Iterations 5
time step continuity errors : sum local = 3.41543e-06, global = 2.09286e-17, cumulative = 9.31707e-16
smoothSolver:  Solving for nuTilda, Initial residual = 0.000652892, Final residual = 2.97704e-06, No Iterations 8
ExecutionTime = 11.25 s  ClockTime = 11 s

Time = 119

smoothSolver:  Solving for Ux, Initial residual = 0.0016406, Final residual = 7.54865e-06, No Iterations 8
smoothSolver:  Solving for Uy, Initial residual = 0.000903627, Final residual = 5.61571e-06, No Iterations 8
GAMG:  Solving for p, Initial residual = 0.00174781, Final residual = 1.12458e-05, No Iterations 5
time step continuity errors : sum local = 3.51436e-06, global = 3.0366e-16, cumulative = 1.23537e-15
smoothSolver:  Solving for nuTilda, Initial residual = 0.000643021, Final residual = 2.92864e-06, No Iterations 8
ExecutionTime = 11.34 s  ClockTime = 11 s

Time = 120

smoothSolver:  Solving for Ux, Initial residual = 0.00162811, Final residual = 7.49141e-06, No Iterations 8
smoothSolver:  Solving for Uy, Initial residual = 0.000895767, Final residual = 5.56539e-06, No Iterations 8
GAMG:  Solving for p, Initial residual = 0.00172992, Final residual = 1.26276e-05, No Iterations 5
time step continuity errors : sum local = 3.94025e-06, global = 8.60451e-17, cumulative = 1.32141e-15
smoothSolver:  Solving for nuTilda, Initial residual = 0.000633239, Final residual = 2.88112e-06, No Iterations 8
ExecutionTime = 11.44 s  ClockTime = 11 s

forces wings output:
    sum of forces:
        pressure : (9.71587 33.8832 3.51391e-18)
        viscous  : (0.213746 -0.0611813 -1.26251e-19)
        porous   : (0 0 0)
    sum of moments:
        pressure : (-1.69416 0.485794 1.38049)
        viscous  : (0.00305906 0.0106873 -3.77281e-05)
        porous   : (0 0 0)

Time = 121

smoothSolver:  Solving for Ux, Initial residual = 0.00161565, Final residual = 7.43533e-06, No Iterations 8
smoothSolver:  Solving for Uy, Initial residual = 0.000887901, Final residual = 5.51495e-06, No Iterations 8
GAMG:  Solving for p, Initial residual = 0.00171131, Final residual = 1.06338e-05, No Iterations 5
time step continuity errors : sum local = 3.31847e-06, global = -9.45566e-17, cumulative = 1.22686e-15
smoothSolver:  Solving for nuTilda, Initial residual = 0.000623231, Final residual = 2.83527e-06, No Iterations 8
ExecutionTime = 11.53 s  ClockTime = 12 s

Time = 122

smoothSolver:  Solving for Ux, Initial residual = 0.00160325, Final residual = 7.37839e-06, No Iterations 8
smoothSolver:  Solving for Uy, Initial residual = 0.000880128, Final residual = 5.46506e-06, No Iterations 8
GAMG:  Solving for p, Initial residual = 0.00169306, Final residual = 1.08233e-05, No Iterations 5
[...]
ExecutionTime = 460.3 s  ClockTime = 461 s

forces wings output:
    sum of forces:
        pressure : (7.1204 24.8318 5.14982e-19)
        viscous  : (0.0811679 -0.0231382 -1.47824e-20)
        porous   : (0 0 0)
    sum of moments:
        pressure : (-1.24159 0.35602 3.78871)
        viscous  : (0.00115691 0.00405839 -5.46224e-05)
        porous   : (0 0 0)

Time = 4971

smoothSolver:  Solving for Ux, Initial residual = 3.29295e-06, Final residual = 1.79397e-08, No Iterations 8
smoothSolver:  Solving for Uy, Initial residual = 1.1295e-05, Final residual = 6.27846e-08, No Iterations 8
GAMG:  Solving for p, Initial residual = 1.64882e-05, Final residual = 6.51431e-07, No Iterations 3
time step continuity errors : sum local = 2.13439e-07, global = -2.35217e-18, cumulative = 3.615e-14
smoothSolver:  Solving for nuTilda, Initial residual = 1.56909e-06, Final residual = 6.93183e-09, No Iterations 8
ExecutionTime = 460.39 s  ClockTime = 461 s

Time = 4972

smoothSolver:  Solving for Ux, Initial residual = 3.29403e-06, Final residual = 1.79597e-08, No Iterations 8
smoothSolver:  Solving for Uy, Initial residual = 1.10951e-05, Final residual = 6.15965e-08, No Iterations 8
GAMG:  Solving for p, Initial residual = 1.6444e-05, Final residual = 6.05312e-07, No Iterations 3
time step continuity errors : sum local = 1.99612e-07, global = -4.33356e-17, cumulative = 3.61067e-14
smoothSolver:  Solving for nuTilda, Initial residual = 1.56708e-06, Final residual = 6.94739e-09, No Iterations 8
ExecutionTime = 460.47 s  ClockTime = 461 s

Time = 4973

smoothSolver:  Solving for Ux, Initial residual = 3.28929e-06, Final residual = 1.79069e-08, No Iterations 8
smoothSolver:  Solving for Uy, Initial residual = 1.11842e-05, Final residual = 6.19543e-08, No Iterations 8
GAMG:  Solving for p, Initial residual = 1.63237e-05, Final residual = 5.64055e-07, No Iterations 3
time step continuity errors : sum local = 1.86098e-07, global = 2.30506e-17, cumulative = 3.61297e-14
smoothSolver:  Solving for nuTilda, Initial residual = 1.56673e-06, Final residual = 6.96661e-09, No Iterations 8
ExecutionTime = 460.56 s  ClockTime = 461 s

Time = 4974

smoothSolver:  Solving for Ux, Initial residual = 3.28877e-06, Final residual = 1.79157e-08, No Iterations 8
smoothSolver:  Solving for Uy, Initial residual = 1.09897e-05, Final residual = 6.08407e-08, No Iterations 8
GAMG:  Solving for p, Initial residual = 1.62708e-05, Final residual = 5.71368e-07, No Iterations 3
time step continuity errors : sum local = 1.8909e-07, global = -2.22748e-16, cumulative = 3.5907e-14
smoothSolver:  Solving for nuTilda, Initial residual = 1.56532e-06, Final residual = 6.98379e-09, No Iterations 8
ExecutionTime = 460.65 s  ClockTime = 462 s

Time = 4975

smoothSolver:  Solving for Ux, Initial residual = 3.28451e-06, Final residual = 1.78675e-08, No Iterations 8
smoothSolver:  Solving for Uy, Initial residual = 1.1093e-05, Final residual = 6.13324e-08, No Iterations 8
GAMG:  Solving for p, Initial residual = 1.61922e-05, Final residual = 6.85001e-07, No Iterations 3
time step continuity errors : sum local = 2.2415e-07, global = 1.46555e-16, cumulative = 3.60535e-14
smoothSolver:  Solving for nuTilda, Initial residual = 1.56577e-06, Final residual = 7.00424e-09, No Iterations 8
ExecutionTime = 460.74 s  ClockTime = 462 s

forces wings output:
    sum of forces:
        pressure : (7.12131 24.8349 5.14653e-19)
        viscous  : (0.0811537 -0.0231342 -1.47518e-20)
        porous   : (0 0 0)
    sum of moments:
        pressure : (-1.24175 0.356065 3.78958)
        viscous  : (0.00115671 0.00405768 -5.46183e-05)
        porous   : (0 0 0)

Time = 4976

smoothSolver:  Solving for Ux, Initial residual = 3.28831e-06, Final residual = 1.78985e-08, No Iterations 8
smoothSolver:  Solving for Uy, Initial residual = 1.09333e-05, Final residual = 6.0379e-08, No Iterations 8
GAMG:  Solving for p, Initial residual = 1.62028e-05, Final residual = 6.12537e-07, No Iterations 3
time step continuity errors : sum local = 2.02749e-07, global = 2.81582e-16, cumulative = 3.63351e-14
smoothSolver:  Solving for nuTilda, Initial residual = 1.56524e-06, Final residual = 7.02246e-09, No Iterations 8
ExecutionTime = 460.83 s  ClockTime = 462 s

Time = 4977

smoothSolver:  Solving for Ux, Initial residual = 3.28649e-06, Final residual = 1.78668e-08, No Iterations 8
smoothSolver:  Solving for Uy, Initial residual = 1.10352e-05, Final residual = 6.07616e-08, No Iterations 8
GAMG:  Solving for p, Initial residual = 1.61244e-05, Final residual = 5.66387e-07, No Iterations 3
time step continuity errors : sum local = 1.87674e-07, global = 3.09736e-16, cumulative = 3.66448e-14
smoothSolver:  Solving for nuTilda, Initial residual = 1.56665e-06, Final residual = 7.04365e-09, No Iterations 8
ExecutionTime = 460.92 s  ClockTime = 462 s

Time = 4978

smoothSolver:  Solving for Ux, Initial residual = 3.28685e-06, Final residual = 1.78754e-08, No Iterations 8
smoothSolver:  Solving for Uy, Initial residual = 1.08423e-05, Final residual = 5.96016e-08, No Iterations 8
GAMG:  Solving for p, Initial residual = 1.60886e-05, Final residual = 5.67271e-07, No Iterations 3
time step continuity errors : sum local = 1.87772e-07, global = 8.66652e-17, cumulative = 3.67315e-14
smoothSolver:  Solving for nuTilda, Initial residual = 1.5676e-06, Final residual = 7.06304e-09, No Iterations 8
ExecutionTime = 461 s  ClockTime = 462 s

Time = 4979

smoothSolver:  Solving for Ux, Initial residual = 3.28313e-06, Final residual = 1.7833e-08, No Iterations 8
smoothSolver:  Solving for Uy, Initial residual = 1.09236e-05, Final residual = 5.99804e-08, No Iterations 8
GAMG:  Solving for p, Initial residual = 1.60019e-05, Final residual = 6.7006e-07, No Iterations 3
time step continuity errors : sum local = 2.19963e-07, global = 1.20937e-18, cumulative = 3.67327e-14
smoothSolver:  Solving for nuTilda, Initial residual = 1.5704e-06, Final residual = 7.0853e-09, No Iterations 8
ExecutionTime = 461.1 s  ClockTime = 462 s

Time = 4980

smoothSolver:  Solving for Ux, Initial residual = 3.28703e-06, Final residual = 1.78634e-08, No Iterations 8
smoothSolver:  Solving for Uy, Initial residual = 1.0765e-05, Final residual = 5.90047e-08, No Iterations 8
GAMG:  Solving for p, Initial residual = 1.59903e-05, Final residual = 5.63571e-07, No Iterations 3
time step continuity errors : sum local = 1.86631e-07, global = 1.33764e-16, cumulative = 3.68665e-14
smoothSolver:  Solving for nuTilda, Initial residual = 1.57208e-06, Final residual = 7.10481e-09, No Iterations 8
ExecutionTime = 461.19 s  ClockTime = 462 s

forces wings output:
    sum of forces:
        pressure : (7.12168 24.8362 5.14077e-19)
        viscous  : (0.0811375 -0.0231295 -1.47364e-20)
        porous   : (0 0 0)
    sum of moments:
        pressure : (-1.24181 0.356084 3.79067)
        viscous  : (0.00115648 0.00405687 -5.46211e-05)
        porous   : (0 0 0)

Time = 4981

smoothSolver:  Solving for Ux, Initial residual = 3.28504e-06, Final residual = 1.78281e-08, No Iterations 8
smoothSolver:  Solving for Uy, Initial residual = 1.08822e-05, Final residual = 5.95321e-08, No Iterations 8
GAMG:  Solving for p, Initial residual = 1.59168e-05, Final residual = 6.42624e-07, No Iterations 3
time step continuity errors : sum local = 2.10162e-07, global = 1.11105e-16, cumulative = 3.69776e-14
smoothSolver:  Solving for nuTilda, Initial residual = 1.5758e-06, Final residual = 7.12723e-09, No Iterations 8
ExecutionTime = 461.28 s  ClockTime = 462 s

Time = 4982

smoothSolver:  Solving for Ux, Initial residual = 3.28869e-06, Final residual = 1.78545e-08, No Iterations 8
smoothSolver:  Solving for Uy, Initial residual = 1.07479e-05, Final residual = 5.86416e-08, No Iterations 8
GAMG:  Solving for p, Initial residual = 1.59037e-05, Final residual = 5.63482e-07, No Iterations 3
time step continuity errors : sum local = 1.86655e-07, global = -3.09045e-16, cumulative = 3.66685e-14
smoothSolver:  Solving for nuTilda, Initial residual = 1.57861e-06, Final residual = 7.14691e-09, No Iterations 8
ExecutionTime = 461.37 s  ClockTime = 462 s

Time = 4983

smoothSolver:  Solving for Ux, Initial residual = 3.28732e-06, Final residual = 1.78221e-08, No Iterations 8
smoothSolver:  Solving for Uy, Initial residual = 1.0856e-05, Final residual = 5.91283e-08, No Iterations 8
GAMG:  Solving for p, Initial residual = 1.58324e-05, Final residual = 5.5898e-07, No Iterations 3
time step continuity errors : sum local = 1.84905e-07, global = -1.39226e-16, cumulative = 3.65293e-14
smoothSolver:  Solving for nuTilda, Initial residual = 1.58391e-06, Final residual = 7.1691e-09, No Iterations 8
ExecutionTime = 461.45 s  ClockTime = 462 s

Time = 4984

smoothSolver:  Solving for Ux, Initial residual = 3.2883e-06, Final residual = 1.78297e-08, No Iterations 8
smoothSolver:  Solving for Uy, Initial residual = 1.07031e-05, Final residual = 5.8202e-08, No Iterations 8
GAMG:  Solving for p, Initial residual = 1.58298e-05, Final residual = 5.76634e-07, No Iterations 3
time step continuity errors : sum local = 1.90836e-07, global = 2.27808e-16, cumulative = 3.67571e-14
smoothSolver:  Solving for nuTilda, Initial residual = 1.58806e-06, Final residual = 7.1885e-09, No Iterations 8
ExecutionTime = 461.54 s  ClockTime = 462 s

Time = 4985

smoothSolver:  Solving for Ux, Initial residual = 3.28717e-06, Final residual = 1.77995e-08, No Iterations 8
smoothSolver:  Solving for Uy, Initial residual = 1.08101e-05, Final residual = 5.87671e-08, No Iterations 8
GAMG:  Solving for p, Initial residual = 1.58e-05, Final residual = 6.84948e-07, No Iterations 3
time step continuity errors : sum local = 2.24842e-07, global = 7.80096e-17, cumulative = 3.68351e-14
smoothSolver:  Solving for nuTilda, Initial residual = 1.59394e-06, Final residual = 7.21067e-09, No Iterations 8
ExecutionTime = 461.63 s  ClockTime = 463 s

forces wings output:
    sum of forces:
        pressure : (7.1224 24.8387 5.13782e-19)
        viscous  : (0.0811251 -0.023126 -1.47074e-20)
        porous   : (0 0 0)
    sum of moments:
        pressure : (-1.24194 0.35612 3.79152)
        viscous  : (0.0011563 0.00405625 -5.4616e-05)
        porous   : (0 0 0)

Time = 4986

smoothSolver:  Solving for Ux, Initial residual = 3.29276e-06, Final residual = 1.78353e-08, No Iterations 8
smoothSolver:  Solving for Uy, Initial residual = 1.06952e-05, Final residual = 5.79743e-08, No Iterations 8
GAMG:  Solving for p, Initial residual = 1.58239e-05, Final residual = 5.6704e-07, No Iterations 3
time step continuity errors : sum local = 1.87808e-07, global = 9.45876e-17, cumulative = 3.69297e-14
smoothSolver:  Solving for nuTilda, Initial residual = 1.59856e-06, Final residual = 7.23e-09, No Iterations 8
ExecutionTime = 461.73 s  ClockTime = 463 s

Time = 4987

smoothSolver:  Solving for Ux, Initial residual = 3.29266e-06, Final residual = 1.78135e-08, No Iterations 8
smoothSolver:  Solving for Uy, Initial residual = 1.08087e-05, Final residual = 5.84983e-08, No Iterations 8
GAMG:  Solving for p, Initial residual = 1.57965e-05, Final residual = 6.53061e-07, No Iterations 3
time step continuity errors : sum local = 2.13862e-07, global = -2.60677e-16, cumulative = 3.6669e-14
smoothSolver:  Solving for nuTilda, Initial residual = 1.6054e-06, Final residual = 7.25214e-09, No Iterations 8
ExecutionTime = 461.81 s  ClockTime = 463 s

Time = 4988

smoothSolver:  Solving for Ux, Initial residual = 3.29692e-06, Final residual = 1.78435e-08, No Iterations 8
smoothSolver:  Solving for Uy, Initial residual = 1.06798e-05, Final residual = 5.75826e-08, No Iterations 8
GAMG:  Solving for p, Initial residual = 1.57984e-05, Final residual = 5.52503e-07, No Iterations 3
time step continuity errors : sum local = 1.83166e-07, global = 7.74435e-17, cumulative = 3.67465e-14
smoothSolver:  Solving for nuTilda, Initial residual = 1.61145e-06, Final residual = 7.27168e-09, No Iterations 8
ExecutionTime = 461.9 s  ClockTime = 463 s

Time = 4989

smoothSolver:  Solving for Ux, Initial residual = 3.29646e-06, Final residual = 1.78172e-08, No Iterations 8
smoothSolver:  Solving for Uy, Initial residual = 1.0782e-05, Final residual = 5.81067e-08, No Iterations 8
GAMG:  Solving for p, Initial residual = 1.57598e-05, Final residual = 5.64638e-07, No Iterations 3
time step continuity errors : sum local = 1.86578e-07, global = 3.45504e-17, cumulative = 3.6781e-14
smoothSolver:  Solving for nuTilda, Initial residual = 1.61923e-06, Final residual = 7.29377e-09, No Iterations 8
ExecutionTime = 461.99 s  ClockTime = 463 s

Time = 4990

smoothSolver:  Solving for Ux, Initial residual = 3.2976e-06, Final residual = 1.78216e-08, No Iterations 8
smoothSolver:  Solving for Uy, Initial residual = 1.0665e-05, Final residual = 5.73368e-08, No Iterations 8
GAMG:  Solving for p, Initial residual = 1.57765e-05, Final residual = 5.83136e-07, No Iterations 3
time step continuity errors : sum local = 1.92939e-07, global = 6.5066e-17, cumulative = 3.68461e-14
smoothSolver:  Solving for nuTilda, Initial residual = 1.62595e-06, Final residual = 7.31314e-09, No Iterations 8
ExecutionTime = 462.08 s  ClockTime = 463 s

forces wings output:
    sum of forces:
        pressure : (7.12249 24.8391 5.13156e-19)
        viscous  : (0.0811106 -0.0231218 -1.46889e-20)
        porous   : (0 0 0)
    sum of moments:
        pressure : (-1.24195 0.356125 3.79248)
        viscous  : (0.00115609 0.00405553 -5.46179e-05)
        porous   : (0 0 0)

Time = 4991

smoothSolver:  Solving for Ux, Initial residual = 3.29816e-06, Final residual = 1.77954e-08, No Iterations 8
smoothSolver:  Solving for Uy, Initial residual = 1.07961e-05, Final residual = 5.80962e-08, No Iterations 8
GAMG:  Solving for p, Initial residual = 1.57899e-05, Final residual = 6.86391e-07, No Iterations 3
time step continuity errors : sum local = 2.25296e-07, global = 1.74183e-16, cumulative = 3.70203e-14
smoothSolver:  Solving for nuTilda, Initial residual = 1.6344e-06, Final residual = 7.33537e-09, No Iterations 8
ExecutionTime = 462.18 s  ClockTime = 463 s

Time = 4992

smoothSolver:  Solving for Ux, Initial residual = 3.304e-06, Final residual = 1.78249e-08, No Iterations 8
smoothSolver:  Solving for Uy, Initial residual = 1.07288e-05, Final residual = 5.74958e-08, No Iterations 8
GAMG:  Solving for p, Initial residual = 1.58533e-05, Final residual = 5.7719e-07, No Iterations 3
time step continuity errors : sum local = 1.9114e-07, global = -2.13304e-16, cumulative = 3.6807e-14
smoothSolver:  Solving for nuTilda, Initial residual = 1.64163e-06, Final residual = 7.35489e-09, No Iterations 8
ExecutionTime = 462.26 s  ClockTime = 463 s

Time = 4993

smoothSolver:  Solving for Ux, Initial residual = 3.3053e-06, Final residual = 1.78088e-08, No Iterations 8
smoothSolver:  Solving for Uy, Initial residual = 1.08463e-05, Final residual = 5.81161e-08, No Iterations 8
GAMG:  Solving for p, Initial residual = 1.58738e-05, Final residual = 6.75606e-07, No Iterations 3
time step continuity errors : sum local = 2.21388e-07, global = 9.97679e-17, cumulative = 3.69067e-14
smoothSolver:  Solving for nuTilda, Initial residual = 1.65058e-06, Final residual = 7.3775e-09, No Iterations 8
ExecutionTime = 462.35 s  ClockTime = 463 s

Time = 4994

smoothSolver:  Solving for Ux, Initial residual = 3.30978e-06, Final residual = 1.78383e-08, No Iterations 8
smoothSolver:  Solving for Uy, Initial residual = 1.07305e-05, Final residual = 5.72037e-08, No Iterations 8
GAMG:  Solving for p, Initial residual = 1.58999e-05, Final residual = 5.608e-07, No Iterations 3
time step continuity errors : sum local = 1.85919e-07, global = -3.92354e-17, cumulative = 3.68675e-14
smoothSolver:  Solving for nuTilda, Initial residual = 1.65802e-06, Final residual = 7.3974e-09, No Iterations 8
ExecutionTime = 462.43 s  ClockTime = 463 s

Time = 4995

smoothSolver:  Solving for Ux, Initial residual = 3.31045e-06, Final residual = 1.78179e-08, No Iterations 8
smoothSolver:  Solving for Uy, Initial residual = 1.08269e-05, Final residual = 5.78045e-08, No Iterations 8
GAMG:  Solving for p, Initial residual = 1.58875e-05, Final residual = 5.83933e-07, No Iterations 3
time step continuity errors : sum local = 1.92841e-07, global = -1.83662e-16, cumulative = 3.66838e-14
smoothSolver:  Solving for nuTilda, Initial residual = 1.66697e-06, Final residual = 7.41986e-09, No Iterations 8
ExecutionTime = 462.52 s  ClockTime = 463 s

forces wings output:
    sum of forces:
        pressure : (7.12301 24.8409 5.12794e-19)
        viscous  : (0.0811001 -0.0231189 -1.46562e-20)
        porous   : (0 0 0)
    sum of moments:
        pressure : (-1.24204 0.35615 3.79331)
        viscous  : (0.00115594 0.00405501 -5.46112e-05)
        porous   : (0 0 0)

Time = 4996

smoothSolver:  Solving for Ux, Initial residual = 3.31173e-06, Final residual = 1.7819e-08, No Iterations 8
smoothSolver:  Solving for Uy, Initial residual = 1.07323e-05, Final residual = 5.71205e-08, No Iterations 8
GAMG:  Solving for p, Initial residual = 1.59187e-05, Final residual = 5.92375e-07, No Iterations 3
time step continuity errors : sum local = 1.95961e-07, global = -5.32555e-17, cumulative = 3.66306e-14
smoothSolver:  Solving for nuTilda, Initial residual = 1.6745e-06, Final residual = 7.43968e-09, No Iterations 8
ExecutionTime = 462.61 s  ClockTime = 464 s

Time = 4997

smoothSolver:  Solving for Ux, Initial residual = 3.31338e-06, Final residual = 1.77972e-08, No Iterations 8
smoothSolver:  Solving for Uy, Initial residual = 1.08716e-05, Final residual = 5.8e-08, No Iterations 8
GAMG:  Solving for p, Initial residual = 1.59537e-05, Final residual = 6.97559e-07, No Iterations 3
time step continuity errors : sum local = 2.29007e-07, global = -4.37679e-17, cumulative = 3.65868e-14
smoothSolver:  Solving for nuTilda, Initial residual = 1.68363e-06, Final residual = 7.4623e-09, No Iterations 8
ExecutionTime = 462.7 s  ClockTime = 464 s

Time = 4998

smoothSolver:  Solving for Ux, Initial residual = 3.31896e-06, Final residual = 1.78188e-08, No Iterations 8
smoothSolver:  Solving for Uy, Initial residual = 1.08412e-05, Final residual = 5.7558e-08, No Iterations 8
GAMG:  Solving for p, Initial residual = 1.60295e-05, Final residual = 5.88966e-07, No Iterations 3
time step continuity errors : sum local = 1.94979e-07, global = 1.49088e-16, cumulative = 3.67359e-14
smoothSolver:  Solving for nuTilda, Initial residual = 1.69142e-06, Final residual = 7.48236e-09, No Iterations 8
ExecutionTime = 462.78 s  ClockTime = 464 s

Time = 4999

smoothSolver:  Solving for Ux, Initial residual = 3.32128e-06, Final residual = 1.78053e-08, No Iterations 8
smoothSolver:  Solving for Uy, Initial residual = 1.09581e-05, Final residual = 5.82513e-08, No Iterations 8
GAMG:  Solving for p, Initial residual = 1.60753e-05, Final residual = 6.9792e-07, No Iterations 3
time step continuity errors : sum local = 2.28818e-07, global = 1.67888e-16, cumulative = 3.69038e-14
smoothSolver:  Solving for nuTilda, Initial residual = 1.7008e-06, Final residual = 7.50565e-09, No Iterations 8
ExecutionTime = 462.87 s  ClockTime = 464 s

Time = 5000

smoothSolver:  Solving for Ux, Initial residual = 3.32555e-06, Final residual = 1.78281e-08, No Iterations 8
smoothSolver:  Solving for Uy, Initial residual = 1.08753e-05, Final residual = 5.75269e-08, No Iterations 8
GAMG:  Solving for p, Initial residual = 1.6119e-05, Final residual = 5.76504e-07, No Iterations 3
time step continuity errors : sum local = 1.91062e-07, global = 4.82007e-17, cumulative = 3.6952e-14
smoothSolver:  Solving for nuTilda, Initial residual = 1.70879e-06, Final residual = 7.52623e-09, No Iterations 8
ExecutionTime = 463.11 s  ClockTime = 464 s

forces wings output:
    sum of forces:
        pressure : (7.12296 24.8407 5.1203e-19)
        viscous  : (0.0810875 -0.0231152 -1.463e-20)
        porous   : (0 0 0)
    sum of moments:
        pressure : (-1.24204 0.356148 3.79428)
        viscous  : (0.00115576 0.00405438 -5.46135e-05)
        porous   : (0 0 0)

End

