/*---------------------------------------------------------------------------*\
| =========                 |                                                 |
| \\      /  F ield         | OpenFOAM: The Open Source CFD Toolbox           |
|  \\    /   O peration     | Version:  2.3.0                                 |
|   \\  /    A nd           | Web:      www.OpenFOAM.org                      |
|    \\/     M anipulation  |                                                 |
\*---------------------------------------------------------------------------*/
Build  : 2.3.0-f5222ca19ce6
Exec   : simpleFoam -case Runs/first_arc_300_26/case
Date   : Jan 12 2015
Time   : 01:56:45
Host   : "lordvon-XPS-8300"
PID    : 10485
Case   : Runs/first_arc_300_26/case
nProcs : 1
sigFpe : Enabling floating point exception trapping (FOAM_SIGFPE).
fileModificationChecking : Monitoring run-time modified files using timeStampMaster
allowSystemOperations : Disallowing user-supplied system call operations

// * * * * * * * * * * * * * * * * * * * * * * * * * * * * * * * * * * * * * //
Create time

Create mesh for time = 0

Reading field p

Reading field U

Reading/calculating face flux field phi

Selecting incompressible transport model Newtonian
Selecting RAS turbulence model SpalartAllmaras
SpalartAllmarasCoeffs
{
    sigmaNut        0.66666;
    kappa           0.41;
    Cb1             0.1355;
    Cb2             0.622;
    Cw2             0.3;
    Cw3             2;
    Cv1             7.1;
    Cv2             5;
}

    Employing Ashford correction
No finite volume options present


SIMPLE: convergence criteria
    field p	 tolerance 1e-12
    field U	 tolerance 1e-12
    field nuTilda	 tolerance 1e-12


Starting time loop

forces wings:
    Not including porosity effects

Time = 1

smoothSolver:  Solving for Ux, Initial residual = 1, Final residual = 0.00317384, No Iterations 6
smoothSolver:  Solving for Uy, Initial residual = 1, Final residual = 0.00761436, No Iterations 4
GAMG:  Solving for p, Initial residual = 1, Final residual = 0.00747975, No Iterations 13
time step continuity errors : sum local = 0.000899363, global = 2.24876e-17, cumulative = 2.24876e-17
smoothSolver:  Solving for nuTilda, Initial residual = 1, Final residual = 0.00384662, No Iterations 4
ExecutionTime = 0.35 s  ClockTime = 0 s

Time = 2

smoothSolver:  Solving for Ux, Initial residual = 0.637245, Final residual = 0.00353566, No Iterations 8
smoothSolver:  Solving for Uy, Initial residual = 0.669693, Final residual = 0.0037761, No Iterations 8
GAMG:  Solving for p, Initial residual = 0.840245, Final residual = 0.00695292, No Iterations 7
time step continuity errors : sum local = 0.00235674, global = 1.42807e-16, cumulative = 1.65295e-16
smoothSolver:  Solving for nuTilda, Initial residual = 0.18414, Final residual = 0.000678217, No Iterations 6
ExecutionTime = 0.44 s  ClockTime = 0 s

Time = 3

smoothSolver:  Solving for Ux, Initial residual = 0.214318, Final residual = 0.00117302, No Iterations 8
smoothSolver:  Solving for Uy, Initial residual = 0.23323, Final residual = 0.00130078, No Iterations 8
GAMG:  Solving for p, Initial residual = 0.685339, Final residual = 0.00602391, No Iterations 9
time step continuity errors : sum local = 0.00290235, global = 3.62937e-17, cumulative = 2.01588e-16
smoothSolver:  Solving for nuTilda, Initial residual = 0.0925796, Final residual = 0.000804816, No Iterations 6
ExecutionTime = 0.54 s  ClockTime = 0 s

Time = 4

smoothSolver:  Solving for Ux, Initial residual = 0.0685679, Final residual = 0.000347727, No Iterations 8
smoothSolver:  Solving for Uy, Initial residual = 0.0763065, Final residual = 0.000406751, No Iterations 8
GAMG:  Solving for p, Initial residual = 0.602325, Final residual = 0.00537135, No Iterations 7
time step continuity errors : sum local = 0.00229788, global = 8.65113e-17, cumulative = 2.881e-16
smoothSolver:  Solving for nuTilda, Initial residual = 0.0696291, Final residual = 0.000194186, No Iterations 8
ExecutionTime = 0.63 s  ClockTime = 0 s

Time = 5

smoothSolver:  Solving for Ux, Initial residual = 0.217104, Final residual = 0.00117484, No Iterations 8
smoothSolver:  Solving for Uy, Initial residual = 0.230466, Final residual = 0.00125847, No Iterations 8
GAMG:  Solving for p, Initial residual = 0.587192, Final residual = 0.00461149, No Iterations 8
time step continuity errors : sum local = 0.0019871, global = -8.12975e-17, cumulative = 2.06802e-16
smoothSolver:  Solving for nuTilda, Initial residual = 0.0571212, Final residual = 0.000179871, No Iterations 8
ExecutionTime = 0.72 s  ClockTime = 0 s

forces wings output:
    sum of forces:
        pressure : (-1398.95 -2583.4 -3.89544e-18)
        viscous  : (0.45325 -0.139041 -1.4649e-19)
        porous   : (0 0 0)
    sum of moments:
        pressure : (129.17 -69.9475 -966.827)
        viscous  : (0.00695204 0.0226625 -0.0190248)
        porous   : (0 0 0)

Time = 6

smoothSolver:  Solving for Ux, Initial residual = 0.186765, Final residual = 0.000991132, No Iterations 8
smoothSolver:  Solving for Uy, Initial residual = 0.20412, Final residual = 0.00111006, No Iterations 8
GAMG:  Solving for p, Initial residual = 0.490187, Final residual = 0.00461702, No Iterations 8
time step continuity errors : sum local = 0.00192546, global = -2.67965e-16, cumulative = -6.11625e-17
smoothSolver:  Solving for nuTilda, Initial residual = 0.0474271, Final residual = 0.000159616, No Iterations 8
ExecutionTime = 0.82 s  ClockTime = 0 s

Time = 7

smoothSolver:  Solving for Ux, Initial residual = 0.162554, Final residual = 0.000822694, No Iterations 8
smoothSolver:  Solving for Uy, Initial residual = 0.184287, Final residual = 0.000975345, No Iterations 8
GAMG:  Solving for p, Initial residual = 0.38574, Final residual = 0.00372762, No Iterations 6
time step continuity errors : sum local = 0.0014451, global = 1.75077e-16, cumulative = 1.13914e-16
smoothSolver:  Solving for nuTilda, Initial residual = 0.0394374, Final residual = 0.000137787, No Iterations 8
ExecutionTime = 0.9 s  ClockTime = 0 s

Time = 8

smoothSolver:  Solving for Ux, Initial residual = 0.160213, Final residual = 0.000839606, No Iterations 8
smoothSolver:  Solving for Uy, Initial residual = 0.176373, Final residual = 0.000944407, No Iterations 8
GAMG:  Solving for p, Initial residual = 0.451335, Final residual = 0.00397547, No Iterations 7
time step continuity errors : sum local = 0.00163651, global = 2.14844e-16, cumulative = 3.28758e-16
smoothSolver:  Solving for nuTilda, Initial residual = 0.0331305, Final residual = 0.000119187, No Iterations 8
ExecutionTime = 0.99 s  ClockTime = 1 s

Time = 9

smoothSolver:  Solving for Ux, Initial residual = 0.0431307, Final residual = 0.000209979, No Iterations 8
smoothSolver:  Solving for Uy, Initial residual = 0.0410227, Final residual = 0.00021561, No Iterations 8
GAMG:  Solving for p, Initial residual = 0.356136, Final residual = 0.00267441, No Iterations 7
time step continuity errors : sum local = 0.00106266, global = -9.55724e-17, cumulative = 2.33186e-16
smoothSolver:  Solving for nuTilda, Initial residual = 0.0284092, Final residual = 0.000105352, No Iterations 8
ExecutionTime = 1.09 s  ClockTime = 1 s

Time = 10

smoothSolver:  Solving for Ux, Initial residual = 0.0665771, Final residual = 0.000338453, No Iterations 8
smoothSolver:  Solving for Uy, Initial residual = 0.0764934, Final residual = 0.000401722, No Iterations 8
GAMG:  Solving for p, Initial residual = 0.304483, Final residual = 0.00270029, No Iterations 5
time step continuity errors : sum local = 0.00101348, global = 1.55441e-17, cumulative = 2.4873e-16
smoothSolver:  Solving for nuTilda, Initial residual = 0.0248195, Final residual = 9.46951e-05, No Iterations 8
ExecutionTime = 1.17 s  ClockTime = 1 s

forces wings output:
    sum of forces:
        pressure : (-880.725 -1617.27 -3.22678e-18)
        viscous  : (0.368263 -0.232078 -1.61152e-19)
        porous   : (0 0 0)
    sum of moments:
        pressure : (80.8636 -44.0362 -614.1)
        viscous  : (0.0116039 0.0184131 -0.0544411)
        porous   : (0 0 0)

Time = 11

smoothSolver:  Solving for Ux, Initial residual = 0.0847795, Final residual = 0.000436396, No Iterations 8
smoothSolver:  Solving for Uy, Initial residual = 0.0989304, Final residual = 0.000519749, No Iterations 8
GAMG:  Solving for p, Initial residual = 0.330718, Final residual = 0.00273379, No Iterations 7
time step continuity errors : sum local = 0.00104968, global = 7.66734e-17, cumulative = 3.25403e-16
smoothSolver:  Solving for nuTilda, Initial residual = 0.0220306, Final residual = 8.62435e-05, No Iterations 8
ExecutionTime = 1.26 s  ClockTime = 1 s

Time = 12

smoothSolver:  Solving for Ux, Initial residual = 0.0241391, Final residual = 9.64315e-05, No Iterations 8
smoothSolver:  Solving for Uy, Initial residual = 0.0203196, Final residual = 9.21969e-05, No Iterations 8
GAMG:  Solving for p, Initial residual = 0.253149, Final residual = 0.00136987, No Iterations 7
time step continuity errors : sum local = 0.000485942, global = 1.96388e-16, cumulative = 5.21792e-16
smoothSolver:  Solving for nuTilda, Initial residual = 0.0196855, Final residual = 7.85778e-05, No Iterations 8
ExecutionTime = 1.35 s  ClockTime = 1 s

Time = 13

smoothSolver:  Solving for Ux, Initial residual = 0.0604838, Final residual = 0.000296391, No Iterations 8
smoothSolver:  Solving for Uy, Initial residual = 0.0678585, Final residual = 0.000348852, No Iterations 8
GAMG:  Solving for p, Initial residual = 0.229852, Final residual = 0.00180906, No Iterations 6
time step continuity errors : sum local = 0.000629283, global = 1.03461e-16, cumulative = 6.25252e-16
smoothSolver:  Solving for nuTilda, Initial residual = 0.0176459, Final residual = 7.14189e-05, No Iterations 8
ExecutionTime = 1.44 s  ClockTime = 1 s

Time = 14

smoothSolver:  Solving for Ux, Initial residual = 0.043992, Final residual = 0.000214057, No Iterations 8
smoothSolver:  Solving for Uy, Initial residual = 0.0459162, Final residual = 0.000235424, No Iterations 8
GAMG:  Solving for p, Initial residual = 0.242923, Final residual = 0.00124366, No Iterations 7
time step continuity errors : sum local = 0.000450086, global = 1.1285e-16, cumulative = 7.38102e-16
smoothSolver:  Solving for nuTilda, Initial residual = 0.0159036, Final residual = 6.52364e-05, No Iterations 8
ExecutionTime = 1.53 s  ClockTime = 1 s

Time = 15

smoothSolver:  Solving for Ux, Initial residual = 0.0175393, Final residual = 7.38795e-05, No Iterations 8
smoothSolver:  Solving for Uy, Initial residual = 0.0146765, Final residual = 6.83913e-05, No Iterations 8
GAMG:  Solving for p, Initial residual = 0.178752, Final residual = 0.00124372, No Iterations 6
time step continuity errors : sum local = 0.000438004, global = -1.22732e-16, cumulative = 6.15369e-16
smoothSolver:  Solving for nuTilda, Initial residual = 0.0144431, Final residual = 6.01429e-05, No Iterations 8
ExecutionTime = 1.62 s  ClockTime = 1 s

forces wings output:
    sum of forces:
        pressure : (-325.995 -592.555 -2.07039e-18)
        viscous  : (0.358979 -0.217798 -4.93685e-20)
        porous   : (0 0 0)
    sum of moments:
        pressure : (29.6278 -16.2998 -230.906)
        viscous  : (0.0108899 0.0179489 -0.0502564)
        porous   : (0 0 0)

Time = 16

smoothSolver:  Solving for Ux, Initial residual = 0.0330541, Final residual = 0.00016273, No Iterations 8
smoothSolver:  Solving for Uy, Initial residual = 0.0380651, Final residual = 0.000193009, No Iterations 8
GAMG:  Solving for p, Initial residual = 0.173706, Final residual = 0.00102065, No Iterations 6
time step continuity errors : sum local = 0.000360137, global = 1.2568e-16, cumulative = 7.4105e-16
smoothSolver:  Solving for nuTilda, Initial residual = 0.013207, Final residual = 5.59936e-05, No Iterations 8
ExecutionTime = 1.71 s  ClockTime = 1 s

Time = 17

smoothSolver:  Solving for Ux, Initial residual = 0.0222382, Final residual = 0.00010621, No Iterations 8
smoothSolver:  Solving for Uy, Initial residual = 0.0251059, Final residual = 0.000125345, No Iterations 8
GAMG:  Solving for p, Initial residual = 0.168662, Final residual = 0.00132009, No Iterations 6
time step continuity errors : sum local = 0.000472337, global = 2.76851e-17, cumulative = 7.68735e-16
smoothSolver:  Solving for nuTilda, Initial residual = 0.012134, Final residual = 5.24094e-05, No Iterations 8
ExecutionTime = 1.8 s  ClockTime = 1 s

Time = 18

smoothSolver:  Solving for Ux, Initial residual = 0.0157349, Final residual = 6.8326e-05, No Iterations 8
smoothSolver:  Solving for Uy, Initial residual = 0.0162223, Final residual = 7.73827e-05, No Iterations 8
GAMG:  Solving for p, Initial residual = 0.12379, Final residual = 0.00119462, No Iterations 5
time step continuity errors : sum local = 0.000415159, global = -2.75245e-17, cumulative = 7.4121e-16
smoothSolver:  Solving for nuTilda, Initial residual = 0.0111858, Final residual = 4.90869e-05, No Iterations 8
ExecutionTime = 1.89 s  ClockTime = 1 s

Time = 19

smoothSolver:  Solving for Ux, Initial residual = 0.0219861, Final residual = 0.000102986, No Iterations 8
smoothSolver:  Solving for Uy, Initial residual = 0.0237637, Final residual = 0.000117388, No Iterations 8
GAMG:  Solving for p, Initial residual = 0.124518, Final residual = 0.0008483, No Iterations 6
time step continuity errors : sum local = 0.000296906, global = 1.43461e-16, cumulative = 8.84671e-16
smoothSolver:  Solving for nuTilda, Initial residual = 0.0103205, Final residual = 4.59766e-05, No Iterations 8
ExecutionTime = 1.97 s  ClockTime = 2 s

Time = 20

smoothSolver:  Solving for Ux, Initial residual = 0.0121515, Final residual = 5.27305e-05, No Iterations 8
smoothSolver:  Solving for Uy, Initial residual = 0.0102769, Final residual = 4.97666e-05, No Iterations 8
GAMG:  Solving for p, Initial residual = 0.115417, Final residual = 0.00103582, No Iterations 6
time step continuity errors : sum local = 0.000371363, global = 1.79881e-16, cumulative = 1.06455e-15
smoothSolver:  Solving for nuTilda, Initial residual = 0.00955573, Final residual = 4.31921e-05, No Iterations 8
ExecutionTime = 2.06 s  ClockTime = 2 s

forces wings output:
    sum of forces:
        pressure : (-60.9939 -103.754 -1.31359e-18)
        viscous  : (0.361022 -0.19168 2.30737e-20)
        porous   : (0 0 0)
    sum of moments:
        pressure : (5.18771 -3.04969 -47.4228)
        viscous  : (0.00958399 0.0180511 -0.0412105)
        porous   : (0 0 0)

Time = 21

smoothSolver:  Solving for Ux, Initial residual = 0.0120237, Final residual = 5.27859e-05, No Iterations 8
smoothSolver:  Solving for Uy, Initial residual = 0.0112108, Final residual = 5.47223e-05, No Iterations 8
GAMG:  Solving for p, Initial residual = 0.0854026, Final residual = 0.000560434, No Iterations 5
time step continuity errors : sum local = 0.000198026, global = 9.94062e-18, cumulative = 1.07449e-15
smoothSolver:  Solving for nuTilda, Initial residual = 0.00890687, Final residual = 4.0775e-05, No Iterations 8
ExecutionTime = 2.15 s  ClockTime = 2 s

Time = 22

smoothSolver:  Solving for Ux, Initial residual = 0.0130165, Final residual = 6.08316e-05, No Iterations 8
smoothSolver:  Solving for Uy, Initial residual = 0.0142942, Final residual = 7.00243e-05, No Iterations 8
GAMG:  Solving for p, Initial residual = 0.0831314, Final residual = 0.00046463, No Iterations 6
time step continuity errors : sum local = 0.000165571, global = 1.05098e-16, cumulative = 1.17959e-15
smoothSolver:  Solving for nuTilda, Initial residual = 0.00835475, Final residual = 3.86762e-05, No Iterations 8
ExecutionTime = 2.24 s  ClockTime = 2 s

Time = 23

smoothSolver:  Solving for Ux, Initial residual = 0.00658243, Final residual = 2.81705e-05, No Iterations 8
smoothSolver:  Solving for Uy, Initial residual = 0.00602422, Final residual = 2.79598e-05, No Iterations 8
GAMG:  Solving for p, Initial residual = 0.076615, Final residual = 0.000440345, No Iterations 6
time step continuity errors : sum local = 0.000155649, global = 9.82355e-18, cumulative = 1.18941e-15
smoothSolver:  Solving for nuTilda, Initial residual = 0.00786396, Final residual = 3.6747e-05, No Iterations 8
ExecutionTime = 2.32 s  ClockTime = 2 s

Time = 24

smoothSolver:  Solving for Ux, Initial residual = 0.00904479, Final residual = 3.98885e-05, No Iterations 8
smoothSolver:  Solving for Uy, Initial residual = 0.00885483, Final residual = 4.29193e-05, No Iterations 8
GAMG:  Solving for p, Initial residual = 0.0582486, Final residual = 0.000484538, No Iterations 5
time step continuity errors : sum local = 0.000171213, global = -1.08157e-16, cumulative = 1.08126e-15
smoothSolver:  Solving for nuTilda, Initial residual = 0.00742341, Final residual = 3.4909e-05, No Iterations 8
ExecutionTime = 2.41 s  ClockTime = 2 s

Time = 25

smoothSolver:  Solving for Ux, Initial residual = 0.00865835, Final residual = 3.79743e-05, No Iterations 8
smoothSolver:  Solving for Uy, Initial residual = 0.00786908, Final residual = 3.80963e-05, No Iterations 8
GAMG:  Solving for p, Initial residual = 0.0547777, Final residual = 0.000455408, No Iterations 6
time step continuity errors : sum local = 0.000163456, global = 1.93063e-16, cumulative = 1.27432e-15
smoothSolver:  Solving for nuTilda, Initial residual = 0.00702237, Final residual = 3.31582e-05, No Iterations 8
ExecutionTime = 2.49 s  ClockTime = 2 s

forces wings output:
    sum of forces:
        pressure : (19.5945 45.7343 -8.46281e-19)
        viscous  : (0.356193 -0.174324 4.77119e-20)
        porous   : (0 0 0)
    sum of moments:
        pressure : (-2.28672 0.979724 7.87603)
        viscous  : (0.00871622 0.0178097 -0.035531)
        porous   : (0 0 0)

Time = 26

smoothSolver:  Solving for Ux, Initial residual = 0.00559401, Final residual = 2.2258e-05, No Iterations 8
smoothSolver:  Solving for Uy, Initial residual = 0.00363497, Final residual = 1.71455e-05, No Iterations 8
GAMG:  Solving for p, Initial residual = 0.0500262, Final residual = 0.000451714, No Iterations 5
time step continuity errors : sum local = 0.00015984, global = 1.32594e-16, cumulative = 1.40692e-15
smoothSolver:  Solving for nuTilda, Initial residual = 0.00665953, Final residual = 3.15163e-05, No Iterations 8
ExecutionTime = 2.58 s  ClockTime = 2 s

Time = 27

smoothSolver:  Solving for Ux, Initial residual = 0.00680726, Final residual = 2.90163e-05, No Iterations 8
smoothSolver:  Solving for Uy, Initial residual = 0.00609694, Final residual = 3.00503e-05, No Iterations 8
GAMG:  Solving for p, Initial residual = 0.0409087, Final residual = 0.000396789, No Iterations 5
time step continuity errors : sum local = 0.000141892, global = 9.10342e-17, cumulative = 1.49795e-15
smoothSolver:  Solving for nuTilda, Initial residual = 0.00633348, Final residual = 3.00265e-05, No Iterations 8
ExecutionTime = 2.66 s  ClockTime = 2 s

Time = 28

smoothSolver:  Solving for Ux, Initial residual = 0.00558513, Final residual = 2.41213e-05, No Iterations 8
smoothSolver:  Solving for Uy, Initial residual = 0.00517538, Final residual = 2.53647e-05, No Iterations 8
GAMG:  Solving for p, Initial residual = 0.0360212, Final residual = 0.000190004, No Iterations 6
time step continuity errors : sum local = 6.78987e-05, global = -3.56968e-17, cumulative = 1.46225e-15
smoothSolver:  Solving for nuTilda, Initial residual = 0.00603535, Final residual = 2.86629e-05, No Iterations 8
ExecutionTime = 2.75 s  ClockTime = 2 s

Time = 29

smoothSolver:  Solving for Ux, Initial residual = 0.00446866, Final residual = 1.89495e-05, No Iterations 8
smoothSolver:  Solving for Uy, Initial residual = 0.00352646, Final residual = 1.69879e-05, No Iterations 8
GAMG:  Solving for p, Initial residual = 0.0326075, Final residual = 0.000193047, No Iterations 6
time step continuity errors : sum local = 6.88651e-05, global = -1.44499e-16, cumulative = 1.31775e-15
smoothSolver:  Solving for nuTilda, Initial residual = 0.00575862, Final residual = 2.74169e-05, No Iterations 8
ExecutionTime = 2.84 s  ClockTime = 2 s

Time = 30

smoothSolver:  Solving for Ux, Initial residual = 0.005143, Final residual = 2.25525e-05, No Iterations 8
smoothSolver:  Solving for Uy, Initial residual = 0.00421769, Final residual = 2.0822e-05, No Iterations 8
GAMG:  Solving for p, Initial residual = 0.0288193, Final residual = 0.000194386, No Iterations 6
time step continuity errors : sum local = 6.96603e-05, global = -2.79003e-16, cumulative = 1.03875e-15
smoothSolver:  Solving for nuTilda, Initial residual = 0.00550023, Final residual = 2.62194e-05, No Iterations 8
ExecutionTime = 2.92 s  ClockTime = 2 s

forces wings output:
    sum of forces:
        pressure : (28.2082 62.5667 -6.56745e-19)
        viscous  : (0.34594 -0.164937 4.90113e-20)
        porous   : (0 0 0)
    sum of moments:
        pressure : (-3.12833 1.41041 13.2799)
        viscous  : (0.00824685 0.017297 -0.0329346)
        porous   : (0 0 0)

Time = 31

smoothSolver:  Solving for Ux, Initial residual = 0.00430945, Final residual = 1.85478e-05, No Iterations 8
smoothSolver:  Solving for Uy, Initial residual = 0.00292043, Final residual = 1.47278e-05, No Iterations 8
GAMG:  Solving for p, Initial residual = 0.0245094, Final residual = 0.000191795, No Iterations 5
time step continuity errors : sum local = 6.894e-05, global = 2.99543e-16, cumulative = 1.33829e-15
smoothSolver:  Solving for nuTilda, Initial residual = 0.00526174, Final residual = 2.50948e-05, No Iterations 8
ExecutionTime = 3.02 s  ClockTime = 3 s

Time = 32

smoothSolver:  Solving for Ux, Initial residual = 0.00398197, Final residual = 1.69534e-05, No Iterations 8
smoothSolver:  Solving for Uy, Initial residual = 0.00264993, Final residual = 1.34933e-05, No Iterations 8
GAMG:  Solving for p, Initial residual = 0.0223763, Final residual = 0.000164035, No Iterations 5
time step continuity errors : sum local = 5.94436e-05, global = 1.45921e-17, cumulative = 1.35289e-15
smoothSolver:  Solving for nuTilda, Initial residual = 0.005037, Final residual = 2.4026e-05, No Iterations 8
ExecutionTime = 3.11 s  ClockTime = 3 s

Time = 33

smoothSolver:  Solving for Ux, Initial residual = 0.00397498, Final residual = 1.7289e-05, No Iterations 8
smoothSolver:  Solving for Uy, Initial residual = 0.00307934, Final residual = 1.59456e-05, No Iterations 8
GAMG:  Solving for p, Initial residual = 0.0200892, Final residual = 9.89097e-05, No Iterations 6
time step continuity errors : sum local = 3.52079e-05, global = -1.26174e-16, cumulative = 1.22671e-15
smoothSolver:  Solving for nuTilda, Initial residual = 0.00483669, Final residual = 2.30503e-05, No Iterations 8
ExecutionTime = 3.19 s  ClockTime = 3 s

Time = 34

smoothSolver:  Solving for Ux, Initial residual = 0.00346545, Final residual = 1.5155e-05, No Iterations 8
smoothSolver:  Solving for Uy, Initial residual = 0.00235462, Final residual = 1.23669e-05, No Iterations 8
GAMG:  Solving for p, Initial residual = 0.0166619, Final residual = 0.000116006, No Iterations 5
time step continuity errors : sum local = 4.16403e-05, global = 1.44574e-16, cumulative = 1.37129e-15
smoothSolver:  Solving for nuTilda, Initial residual = 0.00464689, Final residual = 2.21204e-05, No Iterations 8
ExecutionTime = 3.28 s  ClockTime = 3 s

Time = 35

smoothSolver:  Solving for Ux, Initial residual = 0.00349442, Final residual = 1.53798e-05, No Iterations 8
smoothSolver:  Solving for Uy, Initial residual = 0.00238945, Final residual = 1.23453e-05, No Iterations 8
GAMG:  Solving for p, Initial residual = 0.0154008, Final residual = 0.000140941, No Iterations 5
time step continuity errors : sum local = 5.11161e-05, global = 3.88067e-17, cumulative = 1.41009e-15
smoothSolver:  Solving for nuTilda, Initial residual = 0.00447676, Final residual = 2.12651e-05, No Iterations 8
ExecutionTime = 3.36 s  ClockTime = 3 s

forces wings output:
    sum of forces:
        pressure : (22.1925 52.0229 -6.88723e-19)
        viscous  : (0.332931 -0.158921 5.10034e-20)
        porous   : (0 0 0)
    sum of moments:
        pressure : (-2.60115 1.10962 8.78687)
        viscous  : (0.00794607 0.0166465 -0.0316326)
        porous   : (0 0 0)

Time = 36

smoothSolver:  Solving for Ux, Initial residual = 0.00346177, Final residual = 1.52984e-05, No Iterations 8
smoothSolver:  Solving for Uy, Initial residual = 0.0022679, Final residual = 1.18879e-05, No Iterations 8
GAMG:  Solving for p, Initial residual = 0.0149064, Final residual = 0.000122972, No Iterations 5
time step continuity errors : sum local = 4.42155e-05, global = -6.07988e-17, cumulative = 1.34929e-15
smoothSolver:  Solving for nuTilda, Initial residual = 0.00431473, Final residual = 2.04363e-05, No Iterations 8
bounding nuTilda, min: -2.77042e-05 max: 0.428006 average: 0.0801733
ExecutionTime = 3.45 s  ClockTime = 3 s

Time = 37

smoothSolver:  Solving for Ux, Initial residual = 0.00320931, Final residual = 1.41693e-05, No Iterations 8
smoothSolver:  Solving for Uy, Initial residual = 0.00181239, Final residual = 9.7974e-06, No Iterations 8
GAMG:  Solving for p, Initial residual = 0.0126492, Final residual = 0.000102116, No Iterations 5
time step continuity errors : sum local = 3.71342e-05, global = -1.58993e-16, cumulative = 1.1903e-15
smoothSolver:  Solving for nuTilda, Initial residual = 0.00416351, Final residual = 1.96609e-05, No Iterations 8
ExecutionTime = 3.53 s  ClockTime = 3 s

Time = 38

smoothSolver:  Solving for Ux, Initial residual = 0.00315394, Final residual = 1.4034e-05, No Iterations 8
smoothSolver:  Solving for Uy, Initial residual = 0.00197765, Final residual = 1.06556e-05, No Iterations 8
GAMG:  Solving for p, Initial residual = 0.0114848, Final residual = 4.9234e-05, No Iterations 5
time step continuity errors : sum local = 1.76642e-05, global = 1.26892e-17, cumulative = 1.20299e-15
smoothSolver:  Solving for nuTilda, Initial residual = 0.00401437, Final residual = 1.89032e-05, No Iterations 8
ExecutionTime = 3.62 s  ClockTime = 3 s

Time = 39

smoothSolver:  Solving for Ux, Initial residual = 0.00303006, Final residual = 1.36015e-05, No Iterations 8
smoothSolver:  Solving for Uy, Initial residual = 0.00197462, Final residual = 1.07858e-05, No Iterations 8
GAMG:  Solving for p, Initial residual = 0.0112997, Final residual = 7.2357e-05, No Iterations 5
time step continuity errors : sum local = 2.60498e-05, global = 1.6227e-16, cumulative = 1.36526e-15
smoothSolver:  Solving for nuTilda, Initial residual = 0.00387527, Final residual = 1.82145e-05, No Iterations 8
ExecutionTime = 3.7 s  ClockTime = 3 s

Time = 40

smoothSolver:  Solving for Ux, Initial residual = 0.00294582, Final residual = 1.33121e-05, No Iterations 8
smoothSolver:  Solving for Uy, Initial residual = 0.00176662, Final residual = 9.8612e-06, No Iterations 8
GAMG:  Solving for p, Initial residual = 0.0101288, Final residual = 0.000100205, No Iterations 4
time step continuity errors : sum local = 3.59269e-05, global = -1.67827e-16, cumulative = 1.19743e-15
smoothSolver:  Solving for nuTilda, Initial residual = 0.0037455, Final residual = 1.75645e-05, No Iterations 8
ExecutionTime = 3.78 s  ClockTime = 3 s

forces wings output:
    sum of forces:
        pressure : (17.481 43.6209 -7.62845e-19)
        viscous  : (0.319404 -0.153889 5.34953e-20)
        porous   : (0 0 0)
    sum of moments:
        pressure : (-2.18104 0.874048 5.35357)
        viscous  : (0.00769444 0.0159702 -0.0306759)
        porous   : (0 0 0)

Time = 41

smoothSolver:  Solving for Ux, Initial residual = 0.00294291, Final residual = 1.33138e-05, No Iterations 8
smoothSolver:  Solving for Uy, Initial residual = 0.00175612, Final residual = 9.80586e-06, No Iterations 8
GAMG:  Solving for p, Initial residual = 0.00928787, Final residual = 5.08065e-05, No Iterations 6
time step continuity errors : sum local = 1.82242e-05, global = -1.96777e-17, cumulative = 1.17775e-15
smoothSolver:  Solving for nuTilda, Initial residual = 0.0036207, Final residual = 1.69614e-05, No Iterations 8
ExecutionTime = 3.87 s  ClockTime = 3 s

Time = 42

smoothSolver:  Solving for Ux, Initial residual = 0.00291431, Final residual = 1.318e-05, No Iterations 8
smoothSolver:  Solving for Uy, Initial residual = 0.00163232, Final residual = 9.23745e-06, No Iterations 8
GAMG:  Solving for p, Initial residual = 0.009048, Final residual = 6.79316e-05, No Iterations 5
time step continuity errors : sum local = 2.4436e-05, global = -5.12261e-17, cumulative = 1.12653e-15
smoothSolver:  Solving for nuTilda, Initial residual = 0.00349906, Final residual = 1.63772e-05, No Iterations 8
ExecutionTime = 3.95 s  ClockTime = 4 s

Time = 43

smoothSolver:  Solving for Ux, Initial residual = 0.00285619, Final residual = 1.29104e-05, No Iterations 8
smoothSolver:  Solving for Uy, Initial residual = 0.00161457, Final residual = 9.15547e-06, No Iterations 8
GAMG:  Solving for p, Initial residual = 0.00848332, Final residual = 6.0883e-05, No Iterations 4
time step continuity errors : sum local = 2.18904e-05, global = 1.36141e-16, cumulative = 1.26267e-15
smoothSolver:  Solving for nuTilda, Initial residual = 0.00338263, Final residual = 1.58376e-05, No Iterations 8
ExecutionTime = 4.03 s  ClockTime = 4 s

Time = 44

smoothSolver:  Solving for Ux, Initial residual = 0.00278622, Final residual = 1.26173e-05, No Iterations 8
smoothSolver:  Solving for Uy, Initial residual = 0.00164217, Final residual = 9.30678e-06, No Iterations 8
GAMG:  Solving for p, Initial residual = 0.00805133, Final residual = 7.04571e-05, No Iterations 4
time step continuity errors : sum local = 2.53093e-05, global = -3.59832e-17, cumulative = 1.22669e-15
smoothSolver:  Solving for nuTilda, Initial residual = 0.00327071, Final residual = 1.53145e-05, No Iterations 8
ExecutionTime = 4.11 s  ClockTime = 4 s

Time = 45

smoothSolver:  Solving for Ux, Initial residual = 0.002717, Final residual = 1.23594e-05, No Iterations 8
smoothSolver:  Solving for Uy, Initial residual = 0.00161605, Final residual = 9.22933e-06, No Iterations 8
GAMG:  Solving for p, Initial residual = 0.00780793, Final residual = 7.02032e-05, No Iterations 4
time step continuity errors : sum local = 2.52538e-05, global = -1.1099e-16, cumulative = 1.1157e-15
smoothSolver:  Solving for nuTilda, Initial residual = 0.00316372, Final residual = 1.48209e-05, No Iterations 8
ExecutionTime = 4.19 s  ClockTime = 4 s

forces wings output:
    sum of forces:
        pressure : (16.1334 41.3649 -8.35356e-19)
        viscous  : (0.305555 -0.148881 5.92119e-20)
        porous   : (0 0 0)
    sum of moments:
        pressure : (-2.06825 0.806672 4.28437)
        viscous  : (0.00744406 0.0152777 -0.0297265)
        porous   : (0 0 0)

Time = 46

smoothSolver:  Solving for Ux, Initial residual = 0.00266705, Final residual = 1.2194e-05, No Iterations 8
smoothSolver:  Solving for Uy, Initial residual = 0.00157348, Final residual = 9.07086e-06, No Iterations 8
GAMG:  Solving for p, Initial residual = 0.00757184, Final residual = 7.50641e-05, No Iterations 4
time step continuity errors : sum local = 2.71129e-05, global = -4.0064e-16, cumulative = 7.15057e-16
smoothSolver:  Solving for nuTilda, Initial residual = 0.00305964, Final residual = 1.43398e-05, No Iterations 8
ExecutionTime = 4.28 s  ClockTime = 4 s

Time = 47

smoothSolver:  Solving for Ux, Initial residual = 0.00264127, Final residual = 1.2126e-05, No Iterations 8
smoothSolver:  Solving for Uy, Initial residual = 0.00152588, Final residual = 8.86933e-06, No Iterations 8
GAMG:  Solving for p, Initial residual = 0.00739482, Final residual = 6.38163e-05, No Iterations 4
time step continuity errors : sum local = 2.28731e-05, global = -2.91587e-16, cumulative = 4.2347e-16
smoothSolver:  Solving for nuTilda, Initial residual = 0.00295987, Final residual = 1.38817e-05, No Iterations 8
ExecutionTime = 4.37 s  ClockTime = 4 s

Time = 48

smoothSolver:  Solving for Ux, Initial residual = 0.00261734, Final residual = 1.20452e-05, No Iterations 8
smoothSolver:  Solving for Uy, Initial residual = 0.00150217, Final residual = 8.75276e-06, No Iterations 8
GAMG:  Solving for p, Initial residual = 0.00702749, Final residual = 5.90438e-05, No Iterations 4
time step continuity errors : sum local = 2.11952e-05, global = 1.12306e-16, cumulative = 5.35776e-16
smoothSolver:  Solving for nuTilda, Initial residual = 0.00286334, Final residual = 1.34375e-05, No Iterations 8
ExecutionTime = 4.45 s  ClockTime = 4 s

Time = 49

smoothSolver:  Solving for Ux, Initial residual = 0.00258282, Final residual = 1.19015e-05, No Iterations 8
smoothSolver:  Solving for Uy, Initial residual = 0.00150217, Final residual = 8.74954e-06, No Iterations 8
GAMG:  Solving for p, Initial residual = 0.00677306, Final residual = 4.22294e-05, No Iterations 4
time step continuity errors : sum local = 1.51367e-05, global = 4.7184e-17, cumulative = 5.8296e-16
smoothSolver:  Solving for nuTilda, Initial residual = 0.00277375, Final residual = 1.30144e-05, No Iterations 8
ExecutionTime = 4.53 s  ClockTime = 4 s

Time = 50

smoothSolver:  Solving for Ux, Initial residual = 0.00253957, Final residual = 1.17116e-05, No Iterations 8
smoothSolver:  Solving for Uy, Initial residual = 0.00150207, Final residual = 8.77565e-06, No Iterations 8
GAMG:  Solving for p, Initial residual = 0.00663813, Final residual = 3.85389e-05, No Iterations 4
time step continuity errors : sum local = 1.38633e-05, global = 1.87984e-17, cumulative = 6.01758e-16
smoothSolver:  Solving for nuTilda, Initial residual = 0.00268896, Final residual = 1.26098e-05, No Iterations 8
ExecutionTime = 4.61 s  ClockTime = 4 s

forces wings output:
    sum of forces:
        pressure : (16.6954 42.6991 -8.7049e-19)
        viscous  : (0.29213 -0.143816 6.27117e-20)
        porous   : (0 0 0)
    sum of moments:
        pressure : (-2.13495 0.834768 4.49681)
        viscous  : (0.00719079 0.0146065 -0.0287357)
        porous   : (0 0 0)

Time = 51

smoothSolver:  Solving for Ux, Initial residual = 0.0024949, Final residual = 1.15231e-05, No Iterations 8
smoothSolver:  Solving for Uy, Initial residual = 0.00149503, Final residual = 8.77563e-06, No Iterations 8
GAMG:  Solving for p, Initial residual = 0.00647108, Final residual = 4.035e-05, No Iterations 4
time step continuity errors : sum local = 1.45132e-05, global = -7.34972e-17, cumulative = 5.28261e-16
smoothSolver:  Solving for nuTilda, Initial residual = 0.00260778, Final residual = 1.22305e-05, No Iterations 8
ExecutionTime = 4.69 s  ClockTime = 4 s

Time = 52

smoothSolver:  Solving for Ux, Initial residual = 0.00245826, Final residual = 1.13767e-05, No Iterations 8
smoothSolver:  Solving for Uy, Initial residual = 0.00148067, Final residual = 8.73005e-06, No Iterations 8
GAMG:  Solving for p, Initial residual = 0.0063236, Final residual = 4.45147e-05, No Iterations 4
time step continuity errors : sum local = 1.59919e-05, global = -6.49349e-17, cumulative = 4.63326e-16
smoothSolver:  Solving for nuTilda, Initial residual = 0.00253016, Final residual = 1.18601e-05, No Iterations 8
ExecutionTime = 4.78 s  ClockTime = 4 s

Time = 53

smoothSolver:  Solving for Ux, Initial residual = 0.00243244, Final residual = 1.12843e-05, No Iterations 8
smoothSolver:  Solving for Uy, Initial residual = 0.00146089, Final residual = 8.65156e-06, No Iterations 8
GAMG:  Solving for p, Initial residual = 0.00626845, Final residual = 4.74284e-05, No Iterations 4
time step continuity errors : sum local = 1.70218e-05, global = 1.0588e-16, cumulative = 5.69206e-16
smoothSolver:  Solving for nuTilda, Initial residual = 0.00245511, Final residual = 1.14995e-05, No Iterations 8
ExecutionTime = 4.86 s  ClockTime = 4 s

Time = 54

smoothSolver:  Solving for Ux, Initial residual = 0.00241004, Final residual = 1.12107e-05, No Iterations 8
smoothSolver:  Solving for Uy, Initial residual = 0.00144545, Final residual = 8.59022e-06, No Iterations 8
GAMG:  Solving for p, Initial residual = 0.00616137, Final residual = 4.77952e-05, No Iterations 4
time step continuity errors : sum local = 1.71466e-05, global = -2.86921e-17, cumulative = 5.40514e-16
smoothSolver:  Solving for nuTilda, Initial residual = 0.00238388, Final residual = 1.11508e-05, No Iterations 8
ExecutionTime = 4.93 s  ClockTime = 4 s

Time = 55

smoothSolver:  Solving for Ux, Initial residual = 0.00238475, Final residual = 1.11206e-05, No Iterations 8
smoothSolver:  Solving for Uy, Initial residual = 0.00143692, Final residual = 8.56087e-06, No Iterations 8
GAMG:  Solving for p, Initial residual = 0.00603987, Final residual = 4.48693e-05, No Iterations 4
time step continuity errors : sum local = 1.60933e-05, global = 2.0689e-16, cumulative = 7.47404e-16
smoothSolver:  Solving for nuTilda, Initial residual = 0.00231573, Final residual = 1.08233e-05, No Iterations 8
ExecutionTime = 5.02 s  ClockTime = 5 s

forces wings output:
    sum of forces:
        pressure : (17.1121 43.7647 -8.80421e-19)
        viscous  : (0.278748 -0.138696 6.6036e-20)
        porous   : (0 0 0)
    sum of moments:
        pressure : (-2.18823 0.855603 4.60909)
        viscous  : (0.00693478 0.0139374 -0.0277063)
        porous   : (0 0 0)

Time = 56

smoothSolver:  Solving for Ux, Initial residual = 0.00235464, Final residual = 1.10021e-05, No Iterations 8
smoothSolver:  Solving for Uy, Initial residual = 0.00143159, Final residual = 8.55276e-06, No Iterations 8
GAMG:  Solving for p, Initial residual = 0.00591901, Final residual = 3.56604e-05, No Iterations 4
time step continuity errors : sum local = 1.27688e-05, global = 2.38337e-16, cumulative = 9.85741e-16
smoothSolver:  Solving for nuTilda, Initial residual = 0.00225008, Final residual = 1.05098e-05, No Iterations 8
ExecutionTime = 5.1 s  ClockTime = 5 s

Time = 57

smoothSolver:  Solving for Ux, Initial residual = 0.00232274, Final residual = 1.08712e-05, No Iterations 8
smoothSolver:  Solving for Uy, Initial residual = 0.00142541, Final residual = 8.54701e-06, No Iterations 8
GAMG:  Solving for p, Initial residual = 0.00580519, Final residual = 3.08654e-05, No Iterations 4
time step continuity errors : sum local = 1.10607e-05, global = 1.36401e-18, cumulative = 9.87106e-16
smoothSolver:  Solving for nuTilda, Initial residual = 0.00218506, Final residual = 1.02109e-05, No Iterations 8
ExecutionTime = 5.18 s  ClockTime = 5 s

Time = 58

smoothSolver:  Solving for Ux, Initial residual = 0.00229229, Final residual = 1.07448e-05, No Iterations 8
smoothSolver:  Solving for Uy, Initial residual = 0.00141719, Final residual = 8.52344e-06, No Iterations 8
GAMG:  Solving for p, Initial residual = 0.00570856, Final residual = 2.90528e-05, No Iterations 4
time step continuity errors : sum local = 1.04152e-05, global = 1.80234e-16, cumulative = 1.16734e-15
smoothSolver:  Solving for nuTilda, Initial residual = 0.00212352, Final residual = 9.92492e-06, No Iterations 8
ExecutionTime = 5.26 s  ClockTime = 5 s

Time = 59

smoothSolver:  Solving for Ux, Initial residual = 0.00226652, Final residual = 1.06397e-05, No Iterations 8
smoothSolver:  Solving for Uy, Initial residual = 0.00140701, Final residual = 8.48008e-06, No Iterations 8
GAMG:  Solving for p, Initial residual = 0.0056042, Final residual = 2.97598e-05, No Iterations 4
time step continuity errors : sum local = 1.06902e-05, global = -9.39166e-17, cumulative = 1.07342e-15
smoothSolver:  Solving for nuTilda, Initial residual = 0.00206287, Final residual = 9.64894e-06, No Iterations 8
ExecutionTime = 5.34 s  ClockTime = 5 s

Time = 60

smoothSolver:  Solving for Ux, Initial residual = 0.00224372, Final residual = 1.05488e-05, No Iterations 8
smoothSolver:  Solving for Uy, Initial residual = 0.00139722, Final residual = 8.43494e-06, No Iterations 8
GAMG:  Solving for p, Initial residual = 0.00550821, Final residual = 3.04962e-05, No Iterations 4
time step continuity errors : sum local = 1.09677e-05, global = 7.60725e-17, cumulative = 1.1495e-15
smoothSolver:  Solving for nuTilda, Initial residual = 0.00200533, Final residual = 9.38081e-06, No Iterations 8
ExecutionTime = 5.42 s  ClockTime = 5 s

forces wings output:
    sum of forces:
        pressure : (17.3287 44.4429 -8.99224e-19)
        viscous  : (0.265686 -0.133663 6.86838e-20)
        porous   : (0 0 0)
    sum of moments:
        pressure : (-2.22215 0.866435 4.5938)
        viscous  : (0.00668316 0.0132843 -0.0266979)
        porous   : (0 0 0)

Time = 61

smoothSolver:  Solving for Ux, Initial residual = 0.00222186, Final residual = 1.04609e-05, No Iterations 8
smoothSolver:  Solving for Uy, Initial residual = 0.00138807, Final residual = 8.39525e-06, No Iterations 8
GAMG:  Solving for p, Initial residual = 0.00541683, Final residual = 3.15317e-05, No Iterations 4
time step continuity errors : sum local = 1.13481e-05, global = 1.59509e-16, cumulative = 1.309e-15
smoothSolver:  Solving for nuTilda, Initial residual = 0.00195221, Final residual = 9.11811e-06, No Iterations 8
ExecutionTime = 5.51 s  ClockTime = 5 s

Time = 62

smoothSolver:  Solving for Ux, Initial residual = 0.00219907, Final residual = 1.03687e-05, No Iterations 8
smoothSolver:  Solving for Uy, Initial residual = 0.00137944, Final residual = 8.36188e-06, No Iterations 8
GAMG:  Solving for p, Initial residual = 0.00531926, Final residual = 3.14583e-05, No Iterations 4
time step continuity errors : sum local = 1.13176e-05, global = 2.85671e-16, cumulative = 1.59467e-15
smoothSolver:  Solving for nuTilda, Initial residual = 0.00190131, Final residual = 8.86205e-06, No Iterations 8
ExecutionTime = 5.59 s  ClockTime = 5 s

Time = 63

smoothSolver:  Solving for Ux, Initial residual = 0.00217504, Final residual = 1.02716e-05, No Iterations 8
smoothSolver:  Solving for Uy, Initial residual = 0.00137103, Final residual = 8.3316e-06, No Iterations 8
GAMG:  Solving for p, Initial residual = 0.00521925, Final residual = 3.1478e-05, No Iterations 4
time step continuity errors : sum local = 1.1292e-05, global = 2.18312e-16, cumulative = 1.81299e-15
smoothSolver:  Solving for nuTilda, Initial residual = 0.00185248, Final residual = 8.61934e-06, No Iterations 8
ExecutionTime = 5.67 s  ClockTime = 5 s

Time = 64

smoothSolver:  Solving for Ux, Initial residual = 0.00215087, Final residual = 1.01733e-05, No Iterations 8
smoothSolver:  Solving for Uy, Initial residual = 0.00136233, Final residual = 8.29824e-06, No Iterations 8
GAMG:  Solving for p, Initial residual = 0.00512093, Final residual = 3.14704e-05, No Iterations 4
time step continuity errors : sum local = 1.12967e-05, global = -2.99314e-16, cumulative = 1.51367e-15
smoothSolver:  Solving for nuTilda, Initial residual = 0.00180518, Final residual = 8.3837e-06, No Iterations 8
ExecutionTime = 5.75 s  ClockTime = 5 s

Time = 65

smoothSolver:  Solving for Ux, Initial residual = 0.00212764, Final residual = 1.00785e-05, No Iterations 8
smoothSolver:  Solving for Uy, Initial residual = 0.00135396, Final residual = 8.2614e-06, No Iterations 8
GAMG:  Solving for p, Initial residual = 0.00502377, Final residual = 3.17602e-05, No Iterations 4
time step continuity errors : sum local = 1.14123e-05, global = 5.67921e-17, cumulative = 1.57046e-15
smoothSolver:  Solving for nuTilda, Initial residual = 0.00175998, Final residual = 8.15454e-06, No Iterations 8
ExecutionTime = 5.83 s  ClockTime = 5 s

forces wings output:
    sum of forces:
        pressure : (17.6798 45.3942 -9.15905e-19)
        viscous  : (0.252972 -0.128735 7.15014e-20)
        porous   : (0 0 0)
    sum of moments:
        pressure : (-2.26971 0.883991 4.65674)
        viscous  : (0.00643677 0.0126486 -0.025709)
        porous   : (0 0 0)

Time = 66

smoothSolver:  Solving for Ux, Initial residual = 0.00210625, Final residual = 9.98955e-06, No Iterations 8
smoothSolver:  Solving for Uy, Initial residual = 0.00134592, Final residual = 8.22133e-06, No Iterations 8
GAMG:  Solving for p, Initial residual = 0.00493697, Final residual = 3.26251e-05, No Iterations 4
time step continuity errors : sum local = 1.1723e-05, global = -6.11856e-17, cumulative = 1.50928e-15
smoothSolver:  Solving for nuTilda, Initial residual = 0.00171517, Final residual = 7.93551e-06, No Iterations 8
ExecutionTime = 5.92 s  ClockTime = 5 s

Time = 67

smoothSolver:  Solving for Ux, Initial residual = 0.00208642, Final residual = 9.90605e-06, No Iterations 8
smoothSolver:  Solving for Uy, Initial residual = 0.00133749, Final residual = 8.17913e-06, No Iterations 8
GAMG:  Solving for p, Initial residual = 0.00485174, Final residual = 3.39005e-05, No Iterations 4
time step continuity errors : sum local = 1.21751e-05, global = -1.21233e-17, cumulative = 1.49716e-15
smoothSolver:  Solving for nuTilda, Initial residual = 0.00167173, Final residual = 7.72478e-06, No Iterations 8
ExecutionTime = 6 s  ClockTime = 6 s

Time = 68

smoothSolver:  Solving for Ux, Initial residual = 0.00206725, Final residual = 9.82449e-06, No Iterations 8
smoothSolver:  Solving for Uy, Initial residual = 0.00132855, Final residual = 8.13605e-06, No Iterations 8
GAMG:  Solving for p, Initial residual = 0.00477207, Final residual = 3.42775e-05, No Iterations 4
time step continuity errors : sum local = 1.23117e-05, global = -1.17791e-16, cumulative = 1.37937e-15
smoothSolver:  Solving for nuTilda, Initial residual = 0.00163, Final residual = 7.52217e-06, No Iterations 8
ExecutionTime = 6.09 s  ClockTime = 6 s

Time = 69

smoothSolver:  Solving for Ux, Initial residual = 0.00204781, Final residual = 9.74088e-06, No Iterations 8
smoothSolver:  Solving for Uy, Initial residual = 0.0013197, Final residual = 8.09401e-06, No Iterations 8
GAMG:  Solving for p, Initial residual = 0.00469326, Final residual = 2.96864e-05, No Iterations 4
time step continuity errors : sum local = 1.07048e-05, global = 3.60102e-17, cumulative = 1.41538e-15
smoothSolver:  Solving for nuTilda, Initial residual = 0.00158952, Final residual = 7.32689e-06, No Iterations 8
ExecutionTime = 6.17 s  ClockTime = 6 s

Time = 70

smoothSolver:  Solving for Ux, Initial residual = 0.00202733, Final residual = 9.65218e-06, No Iterations 8
smoothSolver:  Solving for Uy, Initial residual = 0.00131181, Final residual = 8.05559e-06, No Iterations 8
GAMG:  Solving for p, Initial residual = 0.00460797, Final residual = 3.03307e-05, No Iterations 4
time step continuity errors : sum local = 1.09402e-05, global = 2.92149e-17, cumulative = 1.44459e-15
smoothSolver:  Solving for nuTilda, Initial residual = 0.00154968, Final residual = 7.13899e-06, No Iterations 8
ExecutionTime = 6.25 s  ClockTime = 6 s

forces wings output:
    sum of forces:
        pressure : (18.0568 46.4028 -9.30582e-19)
        viscous  : (0.240639 -0.12391 7.39585e-20)
        porous   : (0 0 0)
    sum of moments:
        pressure : (-2.32014 0.902838 4.73183)
        viscous  : (0.00619549 0.0120319 -0.0247426)
        porous   : (0 0 0)

Time = 71

smoothSolver:  Solving for Ux, Initial residual = 0.00200788, Final residual = 9.56839e-06, No Iterations 8
smoothSolver:  Solving for Uy, Initial residual = 0.00130335, Final residual = 8.01283e-06, No Iterations 8
GAMG:  Solving for p, Initial residual = 0.00452275, Final residual = 3.2916e-05, No Iterations 4
time step continuity errors : sum local = 1.18299e-05, global = 9.68459e-17, cumulative = 1.54144e-15
smoothSolver:  Solving for nuTilda, Initial residual = 0.00151041, Final residual = 6.95803e-06, No Iterations 8
ExecutionTime = 6.33 s  ClockTime = 6 s

Time = 72

smoothSolver:  Solving for Ux, Initial residual = 0.00198984, Final residual = 9.48997e-06, No Iterations 8
smoothSolver:  Solving for Uy, Initial residual = 0.00129426, Final residual = 7.9653e-06, No Iterations 8
GAMG:  Solving for p, Initial residual = 0.00443958, Final residual = 3.05111e-05, No Iterations 4
time step continuity errors : sum local = 1.10102e-05, global = 2.5691e-16, cumulative = 1.79835e-15
smoothSolver:  Solving for nuTilda, Initial residual = 0.00147342, Final residual = 6.78862e-06, No Iterations 8
ExecutionTime = 6.41 s  ClockTime = 6 s

Time = 73

smoothSolver:  Solving for Ux, Initial residual = 0.00197177, Final residual = 9.41003e-06, No Iterations 8
smoothSolver:  Solving for Uy, Initial residual = 0.00128633, Final residual = 7.92205e-06, No Iterations 8
GAMG:  Solving for p, Initial residual = 0.00435861, Final residual = 3.29368e-05, No Iterations 4
time step continuity errors : sum local = 1.18587e-05, global = 7.17357e-17, cumulative = 1.87008e-15
smoothSolver:  Solving for nuTilda, Initial residual = 0.00143678, Final residual = 6.61991e-06, No Iterations 8
ExecutionTime = 6.5 s  ClockTime = 6 s

Time = 74

smoothSolver:  Solving for Ux, Initial residual = 0.00195466, Final residual = 9.33441e-06, No Iterations 8
smoothSolver:  Solving for Uy, Initial residual = 0.00127797, Final residual = 7.87732e-06, No Iterations 8
GAMG:  Solving for p, Initial residual = 0.00428646, Final residual = 3.39798e-05, No Iterations 4
time step continuity errors : sum local = 1.22194e-05, global = 4.55149e-18, cumulative = 1.87463e-15
smoothSolver:  Solving for nuTilda, Initial residual = 0.00140207, Final residual = 6.45641e-06, No Iterations 8
ExecutionTime = 6.58 s  ClockTime = 6 s

Time = 75

smoothSolver:  Solving for Ux, Initial residual = 0.00193799, Final residual = 9.26051e-06, No Iterations 8
smoothSolver:  Solving for Uy, Initial residual = 0.0012695, Final residual = 7.83231e-06, No Iterations 8
GAMG:  Solving for p, Initial residual = 0.00421811, Final residual = 3.02484e-05, No Iterations 4
time step continuity errors : sum local = 1.09253e-05, global = 1.32128e-16, cumulative = 2.00676e-15
smoothSolver:  Solving for nuTilda, Initial residual = 0.00136896, Final residual = 6.29516e-06, No Iterations 8
ExecutionTime = 6.66 s  ClockTime = 6 s

forces wings output:
    sum of forces:
        pressure : (18.416 47.3751 -9.43909e-19)
        viscous  : (0.228688 -0.119196 7.62308e-20)
        porous   : (0 0 0)
    sum of moments:
        pressure : (-2.36875 0.920801 4.79687)
        viscous  : (0.00595979 0.0114344 -0.0237982)
        porous   : (0 0 0)

Time = 76

smoothSolver:  Solving for Ux, Initial residual = 0.00192082, Final residual = 9.18452e-06, No Iterations 8
smoothSolver:  Solving for Uy, Initial residual = 0.00126165, Final residual = 7.78992e-06, No Iterations 8
GAMG:  Solving for p, Initial residual = 0.00415401, Final residual = 3.08059e-05, No Iterations 4
time step continuity errors : sum local = 1.11298e-05, global = 3.28685e-17, cumulative = 2.03963e-15
smoothSolver:  Solving for nuTilda, Initial residual = 0.00133674, Final residual = 6.139e-06, No Iterations 8
ExecutionTime = 6.74 s  ClockTime = 6 s

Time = 77

smoothSolver:  Solving for Ux, Initial residual = 0.00190449, Final residual = 9.11281e-06, No Iterations 8
smoothSolver:  Solving for Uy, Initial residual = 0.00125305, Final residual = 7.74345e-06, No Iterations 8
GAMG:  Solving for p, Initial residual = 0.00409199, Final residual = 3.33427e-05, No Iterations 4
time step continuity errors : sum local = 1.20106e-05, global = -1.06781e-16, cumulative = 1.93285e-15
smoothSolver:  Solving for nuTilda, Initial residual = 0.00130479, Final residual = 5.98988e-06, No Iterations 8
ExecutionTime = 6.82 s  ClockTime = 6 s

Time = 78

smoothSolver:  Solving for Ux, Initial residual = 0.00188904, Final residual = 9.04477e-06, No Iterations 8
smoothSolver:  Solving for Uy, Initial residual = 0.00124388, Final residual = 7.69348e-06, No Iterations 8
GAMG:  Solving for p, Initial residual = 0.00403297, Final residual = 3.01438e-05, No Iterations 4
time step continuity errors : sum local = 1.08997e-05, global = 1.27716e-16, cumulative = 2.06057e-15
smoothSolver:  Solving for nuTilda, Initial residual = 0.00127346, Final residual = 5.84729e-06, No Iterations 8
ExecutionTime = 6.9 s  ClockTime = 6 s

Time = 79

smoothSolver:  Solving for Ux, Initial residual = 0.00187286, Final residual = 8.97297e-06, No Iterations 8
smoothSolver:  Solving for Uy, Initial residual = 0.00123625, Final residual = 7.64949e-06, No Iterations 8
GAMG:  Solving for p, Initial residual = 0.00397237, Final residual = 3.17633e-05, No Iterations 4
time step continuity errors : sum local = 1.14799e-05, global = -2.27493e-16, cumulative = 1.83307e-15
smoothSolver:  Solving for nuTilda, Initial residual = 0.00124281, Final residual = 5.70899e-06, No Iterations 8
ExecutionTime = 6.98 s  ClockTime = 7 s

Time = 80

smoothSolver:  Solving for Ux, Initial residual = 0.00185734, Final residual = 8.9042e-06, No Iterations 8
smoothSolver:  Solving for Uy, Initial residual = 0.00122834, Final residual = 7.60399e-06, No Iterations 8
GAMG:  Solving for p, Initial residual = 0.0039162, Final residual = 3.42802e-05, No Iterations 4
time step continuity errors : sum local = 1.23561e-05, global = 9.46717e-17, cumulative = 1.92774e-15
smoothSolver:  Solving for nuTilda, Initial residual = 0.00121364, Final residual = 5.57482e-06, No Iterations 8
ExecutionTime = 7.06 s  ClockTime = 7 s

forces wings output:
    sum of forces:
        pressure : (18.7843 48.3667 -9.58737e-19)
        viscous  : (0.217121 -0.114586 7.83277e-20)
        porous   : (0 0 0)
    sum of moments:
        pressure : (-2.41834 0.939213 4.86648)
        viscous  : (0.00572929 0.010856 -0.0228785)
        porous   : (0 0 0)

Time = 81

smoothSolver:  Solving for Ux, Initial residual = 0.00184266, Final residual = 8.8386e-06, No Iterations 8
smoothSolver:  Solving for Uy, Initial residual = 0.00122001, Final residual = 7.5564e-06, No Iterations 8
GAMG:  Solving for p, Initial residual = 0.00386461, Final residual = 3.0944e-05, No Iterations 4
time step continuity errors : sum local = 1.12009e-05, global = 4.3281e-17, cumulative = 1.97102e-15
smoothSolver:  Solving for nuTilda, Initial residual = 0.00118593, Final residual = 5.44448e-06, No Iterations 8
ExecutionTime = 7.15 s  ClockTime = 7 s

Time = 82

smoothSolver:  Solving for Ux, Initial residual = 0.00182765, Final residual = 8.77062e-06, No Iterations 8
smoothSolver:  Solving for Uy, Initial residual = 0.00121253, Final residual = 7.51225e-06, No Iterations 8
GAMG:  Solving for p, Initial residual = 0.00381527, Final residual = 3.20031e-05, No Iterations 4
time step continuity errors : sum local = 1.15893e-05, global = 1.55564e-16, cumulative = 2.12659e-15
smoothSolver:  Solving for nuTilda, Initial residual = 0.00115927, Final residual = 5.32074e-06, No Iterations 8
ExecutionTime = 7.23 s  ClockTime = 7 s

Time = 83

smoothSolver:  Solving for Ux, Initial residual = 0.00181342, Final residual = 8.70657e-06, No Iterations 8
smoothSolver:  Solving for Uy, Initial residual = 0.00120432, Final residual = 7.46467e-06, No Iterations 8
GAMG:  Solving for p, Initial residual = 0.0037681, Final residual = 3.44052e-05, No Iterations 4
time step continuity errors : sum local = 1.24353e-05, global = -1.53049e-16, cumulative = 1.97354e-15
smoothSolver:  Solving for nuTilda, Initial residual = 0.00113237, Final residual = 5.19911e-06, No Iterations 8
ExecutionTime = 7.31 s  ClockTime = 7 s

Time = 84

smoothSolver:  Solving for Ux, Initial residual = 0.00179989, Final residual = 8.6465e-06, No Iterations 8
smoothSolver:  Solving for Uy, Initial residual = 0.00119552, Final residual = 7.41403e-06, No Iterations 8
GAMG:  Solving for p, Initial residual = 0.00372476, Final residual = 3.55094e-05, No Iterations 4
time step continuity errors : sum local = 1.282e-05, global = 1.1197e-16, cumulative = 2.08551e-15
smoothSolver:  Solving for nuTilda, Initial residual = 0.00110727, Final residual = 5.08244e-06, No Iterations 8
ExecutionTime = 7.39 s  ClockTime = 7 s

Time = 85

smoothSolver:  Solving for Ux, Initial residual = 0.00178625, Final residual = 8.58563e-06, No Iterations 8
smoothSolver:  Solving for Uy, Initial residual = 0.00118718, Final residual = 7.36509e-06, No Iterations 8
GAMG:  Solving for p, Initial residual = 0.00368255, Final residual = 3.18014e-05, No Iterations 4
time step continuity errors : sum local = 1.15306e-05, global = 2.46103e-16, cumulative = 2.33161e-15
smoothSolver:  Solving for nuTilda, Initial residual = 0.00108354, Final residual = 4.96832e-06, No Iterations 8
ExecutionTime = 7.47 s  ClockTime = 7 s

forces wings output:
    sum of forces:
        pressure : (19.1419 49.3266 -9.76747e-19)
        viscous  : (0.205965 -0.110083 8.02791e-20)
        porous   : (0 0 0)
    sum of moments:
        pressure : (-2.46633 0.957093 4.93592)
        viscous  : (0.00550414 0.0102983 -0.0219858)
        porous   : (0 0 0)

Time = 86

smoothSolver:  Solving for Ux, Initial residual = 0.00177185, Final residual = 8.52085e-06, No Iterations 8
smoothSolver:  Solving for Uy, Initial residual = 0.00118022, Final residual = 7.32204e-06, No Iterations 8
GAMG:  Solving for p, Initial residual = 0.00364176, Final residual = 3.2323e-05, No Iterations 4
time step continuity errors : sum local = 1.17277e-05, global = 3.415e-17, cumulative = 2.36576e-15
smoothSolver:  Solving for nuTilda, Initial residual = 0.00105985, Final residual = 4.85735e-06, No Iterations 8
ExecutionTime = 7.55 s  ClockTime = 7 s

Time = 87

smoothSolver:  Solving for Ux, Initial residual = 0.00175826, Final residual = 8.46054e-06, No Iterations 8
smoothSolver:  Solving for Uy, Initial residual = 0.00117251, Final residual = 7.27566e-06, No Iterations 8
GAMG:  Solving for p, Initial residual = 0.00360515, Final residual = 3.36366e-05, No Iterations 4
time step continuity errors : sum local = 1.22093e-05, global = -1.02549e-16, cumulative = 2.26322e-15
smoothSolver:  Solving for nuTilda, Initial residual = 0.00103683, Final residual = 4.75124e-06, No Iterations 8
ExecutionTime = 7.63 s  ClockTime = 7 s

Time = 88

smoothSolver:  Solving for Ux, Initial residual = 0.00174571, Final residual = 8.40494e-06, No Iterations 8
smoothSolver:  Solving for Uy, Initial residual = 0.00116379, Final residual = 7.22451e-06, No Iterations 8
GAMG:  Solving for p, Initial residual = 0.00357252, Final residual = 1.39306e-05, No Iterations 5
time step continuity errors : sum local = 5.04618e-06, global = 1.04387e-16, cumulative = 2.3676e-15
smoothSolver:  Solving for nuTilda, Initial residual = 0.00101387, Final residual = 4.64775e-06, No Iterations 8
ExecutionTime = 7.72 s  ClockTime = 7 s

Time = 89

smoothSolver:  Solving for Ux, Initial residual = 0.00173385, Final residual = 8.35241e-06, No Iterations 8
smoothSolver:  Solving for Uy, Initial residual = 0.0011545, Final residual = 7.1704e-06, No Iterations 8
GAMG:  Solving for p, Initial residual = 0.00354145, Final residual = 3.36525e-05, No Iterations 4
time step continuity errors : sum local = 1.22121e-05, global = 9.56391e-17, cumulative = 2.46324e-15
smoothSolver:  Solving for nuTilda, Initial residual = 0.000992192, Final residual = 4.54827e-06, No Iterations 8
ExecutionTime = 7.8 s  ClockTime = 7 s

Time = 90

smoothSolver:  Solving for Ux, Initial residual = 0.00172058, Final residual = 8.29197e-06, No Iterations 8
smoothSolver:  Solving for Uy, Initial residual = 0.00114716, Final residual = 7.12487e-06, No Iterations 8
GAMG:  Solving for p, Initial residual = 0.00350862, Final residual = 3.32647e-05, No Iterations 4
time step continuity errors : sum local = 1.2085e-05, global = -3.33206e-16, cumulative = 2.13004e-15
smoothSolver:  Solving for nuTilda, Initial residual = 0.000971524, Final residual = 4.45542e-06, No Iterations 8
ExecutionTime = 7.88 s  ClockTime = 7 s

forces wings output:
    sum of forces:
        pressure : (19.505 50.299 -9.9637e-19)
        viscous  : (0.195289 -0.105736 8.19479e-20)
        porous   : (0 0 0)
    sum of moments:
        pressure : (-2.51495 0.975249 5.00773)
        viscous  : (0.00528678 0.00976446 -0.0211217)
        porous   : (0 0 0)

Time = 91

smoothSolver:  Solving for Ux, Initial residual = 0.00170723, Final residual = 8.23167e-06, No Iterations 8
smoothSolver:  Solving for Uy, Initial residual = 0.00114009, Final residual = 7.0805e-06, No Iterations 8
GAMG:  Solving for p, Initial residual = 0.00347791, Final residual = 3.35127e-05, No Iterations 4
time step continuity errors : sum local = 1.21904e-05, global = 1.77766e-16, cumulative = 2.3078e-15
smoothSolver:  Solving for nuTilda, Initial residual = 0.000951242, Final residual = 4.3592e-06, No Iterations 8
ExecutionTime = 7.97 s  ClockTime = 8 s

Time = 92

smoothSolver:  Solving for Ux, Initial residual = 0.00169453, Final residual = 8.17504e-06, No Iterations 8
smoothSolver:  Solving for Uy, Initial residual = 0.00113243, Final residual = 7.03329e-06, No Iterations 8
GAMG:  Solving for p, Initial residual = 0.00345085, Final residual = 3.43179e-05, No Iterations 4
time step continuity errors : sum local = 1.24937e-05, global = -9.98502e-17, cumulative = 2.20795e-15
smoothSolver:  Solving for nuTilda, Initial residual = 0.00093176, Final residual = 4.26266e-06, No Iterations 8
ExecutionTime = 8.05 s  ClockTime = 8 s

Time = 93

smoothSolver:  Solving for Ux, Initial residual = 0.00168258, Final residual = 8.12192e-06, No Iterations 8
smoothSolver:  Solving for Uy, Initial residual = 0.00112397, Final residual = 6.98205e-06, No Iterations 8
GAMG:  Solving for p, Initial residual = 0.00342544, Final residual = 1.63285e-05, No Iterations 5
time step continuity errors : sum local = 5.92535e-06, global = -2.51039e-17, cumulative = 2.18285e-15
smoothSolver:  Solving for nuTilda, Initial residual = 0.000912893, Final residual = 4.17073e-06, No Iterations 8
ExecutionTime = 8.13 s  ClockTime = 8 s

Time = 94

smoothSolver:  Solving for Ux, Initial residual = 0.00167112, Final residual = 8.07116e-06, No Iterations 8
smoothSolver:  Solving for Uy, Initial residual = 0.00111503, Final residual = 6.92838e-06, No Iterations 8
GAMG:  Solving for p, Initial residual = 0.0034015, Final residual = 3.29027e-05, No Iterations 4
time step continuity errors : sum local = 1.19925e-05, global = 2.4168e-16, cumulative = 2.42453e-15
smoothSolver:  Solving for nuTilda, Initial residual = 0.000894656, Final residual = 4.08133e-06, No Iterations 8
ExecutionTime = 8.21 s  ClockTime = 8 s

Time = 95

smoothSolver:  Solving for Ux, Initial residual = 0.0016585, Final residual = 8.01404e-06, No Iterations 8
smoothSolver:  Solving for Uy, Initial residual = 0.00110743, Final residual = 6.88047e-06, No Iterations 8
GAMG:  Solving for p, Initial residual = 0.00337267, Final residual = 3.26935e-05, No Iterations 4
time step continuity errors : sum local = 1.19238e-05, global = 6.97094e-17, cumulative = 2.49424e-15
smoothSolver:  Solving for nuTilda, Initial residual = 0.000876522, Final residual = 3.99764e-06, No Iterations 8
ExecutionTime = 8.29 s  ClockTime = 8 s

forces wings output:
    sum of forces:
        pressure : (19.867 51.2665 -1.01707e-18)
        viscous  : (0.185302 -0.101646 8.37256e-20)
        porous   : (0 0 0)
    sum of moments:
        pressure : (-2.56333 0.99335 5.08053)
        viscous  : (0.0050823 0.00926511 -0.0203064)
        porous   : (0 0 0)

Time = 96

smoothSolver:  Solving for Ux, Initial residual = 0.00164598, Final residual = 7.9584e-06, No Iterations 8
smoothSolver:  Solving for Uy, Initial residual = 0.00109964, Final residual = 6.83205e-06, No Iterations 8
GAMG:  Solving for p, Initial residual = 0.00334393, Final residual = 3.26417e-05, No Iterations 4
time step continuity errors : sum local = 1.1914e-05, global = -9.12144e-17, cumulative = 2.40302e-15
smoothSolver:  Solving for nuTilda, Initial residual = 0.00085892, Final residual = 3.91643e-06, No Iterations 8
ExecutionTime = 8.38 s  ClockTime = 8 s

Time = 97

smoothSolver:  Solving for Ux, Initial residual = 0.00163394, Final residual = 7.9062e-06, No Iterations 8
smoothSolver:  Solving for Uy, Initial residual = 0.00109135, Final residual = 6.78129e-06, No Iterations 8
GAMG:  Solving for p, Initial residual = 0.00331732, Final residual = 3.26996e-05, No Iterations 4
time step continuity errors : sum local = 1.19453e-05, global = 1.21997e-16, cumulative = 2.52502e-15
smoothSolver:  Solving for nuTilda, Initial residual = 0.000842326, Final residual = 3.8369e-06, No Iterations 8
ExecutionTime = 8.46 s  ClockTime = 8 s

Time = 98

smoothSolver:  Solving for Ux, Initial residual = 0.00162226, Final residual = 7.85561e-06, No Iterations 8
smoothSolver:  Solving for Uy, Initial residual = 0.00108273, Final residual = 6.72841e-06, No Iterations 8
GAMG:  Solving for p, Initial residual = 0.00329269, Final residual = 3.25787e-05, No Iterations 4
time step continuity errors : sum local = 1.19106e-05, global = 1.97878e-16, cumulative = 2.7229e-15
smoothSolver:  Solving for nuTilda, Initial residual = 0.000826128, Final residual = 3.76193e-06, No Iterations 8
ExecutionTime = 8.54 s  ClockTime = 8 s

Time = 99

smoothSolver:  Solving for Ux, Initial residual = 0.00161061, Final residual = 7.80472e-06, No Iterations 8
smoothSolver:  Solving for Uy, Initial residual = 0.00107416, Final residual = 6.67548e-06, No Iterations 8
GAMG:  Solving for p, Initial residual = 0.00327014, Final residual = 3.24812e-05, No Iterations 4
time step continuity errors : sum local = 1.18832e-05, global = -1.15933e-16, cumulative = 2.60696e-15
smoothSolver:  Solving for nuTilda, Initial residual = 0.000810405, Final residual = 3.69111e-06, No Iterations 8
ExecutionTime = 8.62 s  ClockTime = 8 s

Time = 100

smoothSolver:  Solving for Ux, Initial residual = 0.00159872, Final residual = 7.75289e-06, No Iterations 8
smoothSolver:  Solving for Uy, Initial residual = 0.00106589, Final residual = 6.62401e-06, No Iterations 8
GAMG:  Solving for p, Initial residual = 0.0032491, Final residual = 3.24292e-05, No Iterations 4
time step continuity errors : sum local = 1.18714e-05, global = 2.41953e-16, cumulative = 2.84892e-15
smoothSolver:  Solving for nuTilda, Initial residual = 0.000795055, Final residual = 3.62299e-06, No Iterations 8
ExecutionTime = 8.7 s  ClockTime = 8 s

forces wings output:
    sum of forces:
        pressure : (20.2249 52.2354 -1.03958e-18)
        viscous  : (0.175978 -0.0978398 8.5628e-20)
        porous   : (0 0 0)
    sum of moments:
        pressure : (-2.61177 1.01125 5.14525)
        viscous  : (0.00489199 0.00879892 -0.0195506)
        porous   : (0 0 0)

Time = 101

smoothSolver:  Solving for Ux, Initial residual = 0.00158672, Final residual = 7.70038e-06, No Iterations 8
smoothSolver:  Solving for Uy, Initial residual = 0.00105791, Final residual = 6.57395e-06, No Iterations 8
GAMG:  Solving for p, Initial residual = 0.00322867, Final residual = 1.76299e-05, No Iterations 5
time step continuity errors : sum local = 6.45096e-06, global = 1.04663e-16, cumulative = 2.95358e-15
smoothSolver:  Solving for nuTilda, Initial residual = 0.000779808, Final residual = 3.55928e-06, No Iterations 8
ExecutionTime = 8.79 s  ClockTime = 8 s

Time = 102

smoothSolver:  Solving for Ux, Initial residual = 0.00157508, Final residual = 7.65014e-06, No Iterations 8
smoothSolver:  Solving for Uy, Initial residual = 0.00104968, Final residual = 6.5231e-06, No Iterations 8
GAMG:  Solving for p, Initial residual = 0.0032094, Final residual = 3.19299e-05, No Iterations 4
time step continuity errors : sum local = 1.16777e-05, global = 2.91533e-17, cumulative = 2.98273e-15
smoothSolver:  Solving for nuTilda, Initial residual = 0.000765016, Final residual = 3.4968e-06, No Iterations 8
ExecutionTime = 8.87 s  ClockTime = 8 s

Time = 103

smoothSolver:  Solving for Ux, Initial residual = 0.00156294, Final residual = 7.59598e-06, No Iterations 8
smoothSolver:  Solving for Uy, Initial residual = 0.00104221, Final residual = 6.47542e-06, No Iterations 8
GAMG:  Solving for p, Initial residual = 0.00318868, Final residual = 1.93874e-05, No Iterations 5
time step continuity errors : sum local = 7.14276e-06, global = -3.11667e-17, cumulative = 2.95157e-15
smoothSolver:  Solving for nuTilda, Initial residual = 0.000750657, Final residual = 3.43499e-06, No Iterations 8
ExecutionTime = 8.95 s  ClockTime = 9 s

Time = 104

smoothSolver:  Solving for Ux, Initial residual = 0.00155153, Final residual = 7.54655e-06, No Iterations 8
smoothSolver:  Solving for Uy, Initial residual = 0.00103368, Final residual = 6.42348e-06, No Iterations 8
GAMG:  Solving for p, Initial residual = 0.00316966, Final residual = 2.47211e-05, No Iterations 5
time step continuity errors : sum local = 9.10891e-06, global = -1.85281e-16, cumulative = 2.76629e-15
smoothSolver:  Solving for nuTilda, Initial residual = 0.000736456, Final residual = 3.37484e-06, No Iterations 8
ExecutionTime = 9.04 s  ClockTime = 9 s

Time = 105

smoothSolver:  Solving for Ux, Initial residual = 0.00153999, Final residual = 7.49667e-06, No Iterations 8
smoothSolver:  Solving for Uy, Initial residual = 0.00102526, Final residual = 6.37187e-06, No Iterations 8
GAMG:  Solving for p, Initial residual = 0.00314782, Final residual = 3.1249e-05, No Iterations 4
time step continuity errors : sum local = 1.14655e-05, global = 9.83593e-17, cumulative = 2.86465e-15
smoothSolver:  Solving for nuTilda, Initial residual = 0.000723401, Final residual = 3.31672e-06, No Iterations 8
ExecutionTime = 9.12 s  ClockTime = 9 s

forces wings output:
    sum of forces:
        pressure : (20.5591 53.1352 -1.06174e-18)
        viscous  : (0.16718 -0.0942643 8.76122e-20)
        porous   : (0 0 0)
    sum of moments:
        pressure : (-2.65676 1.02796 5.20847)
        viscous  : (0.00471321 0.008359 -0.0188388)
        porous   : (0 0 0)

Time = 106

smoothSolver:  Solving for Ux, Initial residual = 0.00152786, Final residual = 7.4429e-06, No Iterations 8
smoothSolver:  Solving for Uy, Initial residual = 0.00101766, Final residual = 6.32375e-06, No Iterations 8
GAMG:  Solving for p, Initial residual = 0.00312552, Final residual = 1.76637e-05, No Iterations 5
time step continuity errors : sum local = 6.49878e-06, global = 1.52966e-17, cumulative = 2.87994e-15
smoothSolver:  Solving for nuTilda, Initial residual = 0.000710882, Final residual = 3.2608e-06, No Iterations 8
ExecutionTime = 9.21 s  ClockTime = 9 s

Time = 107

smoothSolver:  Solving for Ux, Initial residual = 0.00151623, Final residual = 7.39299e-06, No Iterations 8
smoothSolver:  Solving for Uy, Initial residual = 0.00100936, Final residual = 6.27283e-06, No Iterations 8
GAMG:  Solving for p, Initial residual = 0.0031053, Final residual = 2.08881e-05, No Iterations 5
time step continuity errors : sum local = 7.71e-06, global = -8.37108e-17, cumulative = 2.79623e-15
smoothSolver:  Solving for nuTilda, Initial residual = 0.000699442, Final residual = 3.20865e-06, No Iterations 8
ExecutionTime = 9.29 s  ClockTime = 9 s

Time = 108

smoothSolver:  Solving for Ux, Initial residual = 0.00150455, Final residual = 7.34306e-06, No Iterations 8
smoothSolver:  Solving for Uy, Initial residual = 0.00100126, Final residual = 6.22242e-06, No Iterations 8
GAMG:  Solving for p, Initial residual = 0.00308393, Final residual = 3.04604e-05, No Iterations 4
time step continuity errors : sum local = 1.11867e-05, global = 4.29485e-17, cumulative = 2.83918e-15
smoothSolver:  Solving for nuTilda, Initial residual = 0.000688105, Final residual = 3.15823e-06, No Iterations 8
ExecutionTime = 9.37 s  ClockTime = 9 s

Time = 109

smoothSolver:  Solving for Ux, Initial residual = 0.0014924, Final residual = 7.2898e-06, No Iterations 8
smoothSolver:  Solving for Uy, Initial residual = 0.000993829, Final residual = 6.17483e-06, No Iterations 8
GAMG:  Solving for p, Initial residual = 0.00306223, Final residual = 2.00496e-05, No Iterations 5
time step continuity errors : sum local = 7.40891e-06, global = -1.07891e-16, cumulative = 2.73129e-15
smoothSolver:  Solving for nuTilda, Initial residual = 0.000677008, Final residual = 3.10901e-06, No Iterations 8
ExecutionTime = 9.46 s  ClockTime = 9 s

Time = 110

smoothSolver:  Solving for Ux, Initial residual = 0.00148092, Final residual = 7.24149e-06, No Iterations 8
smoothSolver:  Solving for Uy, Initial residual = 0.000985329, Final residual = 6.12293e-06, No Iterations 8
GAMG:  Solving for p, Initial residual = 0.00304174, Final residual = 1.79086e-05, No Iterations 5
time step continuity errors : sum local = 6.62595e-06, global = 9.59221e-17, cumulative = 2.82721e-15
smoothSolver:  Solving for nuTilda, Initial residual = 0.000666215, Final residual = 3.0608e-06, No Iterations 8
ExecutionTime = 9.54 s  ClockTime = 9 s

forces wings output:
    sum of forces:
        pressure : (20.8812 54.0077 -1.08348e-18)
        viscous  : (0.158795 -0.0908467 8.94701e-20)
        porous   : (0 0 0)
    sum of moments:
        pressure : (-2.70039 1.04406 5.26628)
        viscous  : (0.00454233 0.00793975 -0.0181592)
        porous   : (0 0 0)

Time = 111

smoothSolver:  Solving for Ux, Initial residual = 0.00146941, Final residual = 7.19183e-06, No Iterations 8
smoothSolver:  Solving for Uy, Initial residual = 0.000977134, Final residual = 6.07228e-06, No Iterations 8
GAMG:  Solving for p, Initial residual = 0.00301905, Final residual = 2.18692e-05, No Iterations 5
time step continuity errors : sum local = 8.10117e-06, global = 3.3426e-17, cumulative = 2.86064e-15
smoothSolver:  Solving for nuTilda, Initial residual = 0.000655676, Final residual = 3.01342e-06, No Iterations 8
ExecutionTime = 9.63 s  ClockTime = 9 s

Time = 112

smoothSolver:  Solving for Ux, Initial residual = 0.00145769, Final residual = 7.14132e-06, No Iterations 8
smoothSolver:  Solving for Uy, Initial residual = 0.000969278, Final residual = 6.02322e-06, No Iterations 8
GAMG:  Solving for p, Initial residual = 0.00299393, Final residual = 2.94972e-05, No Iterations 4
time step continuity errors : sum local = 1.08661e-05, global = 2.32927e-16, cumulative = 3.09356e-15
smoothSolver:  Solving for nuTilda, Initial residual = 0.000645356, Final residual = 2.96717e-06, No Iterations 8
ExecutionTime = 9.71 s  ClockTime = 9 s

Time = 113

smoothSolver:  Solving for Ux, Initial residual = 0.00144562, Final residual = 7.08779e-06, No Iterations 8
smoothSolver:  Solving for Uy, Initial residual = 0.000962102, Final residual = 5.97697e-06, No Iterations 8
GAMG:  Solving for p, Initial residual = 0.00296849, Final residual = 1.91836e-05, No Iterations 5
time step continuity errors : sum local = 7.11271e-06, global = 5.2772e-17, cumulative = 3.14634e-15
smoothSolver:  Solving for nuTilda, Initial residual = 0.00063517, Final residual = 2.92205e-06, No Iterations 8
ExecutionTime = 9.8 s  ClockTime = 9 s

Time = 114

smoothSolver:  Solving for Ux, Initial residual = 0.00143422, Final residual = 7.03972e-06, No Iterations 8
smoothSolver:  Solving for Uy, Initial residual = 0.000953811, Final residual = 5.92605e-06, No Iterations 8
GAMG:  Solving for p, Initial residual = 0.00294428, Final residual = 2.89483e-05, No Iterations 4
time step continuity errors : sum local = 1.06809e-05, global = -1.45322e-17, cumulative = 3.1318e-15
smoothSolver:  Solving for nuTilda, Initial residual = 0.00062512, Final residual = 2.87767e-06, No Iterations 8
ExecutionTime = 9.88 s  ClockTime = 9 s

Time = 115

smoothSolver:  Solving for Ux, Initial residual = 0.00142261, Final residual = 6.98923e-06, No Iterations 8
smoothSolver:  Solving for Uy, Initial residual = 0.000946151, Final residual = 5.87758e-06, No Iterations 8
GAMG:  Solving for p, Initial residual = 0.00291827, Final residual = 1.90781e-05, No Iterations 5
time step continuity errors : sum local = 7.08848e-06, global = 6.03152e-17, cumulative = 3.19212e-15
smoothSolver:  Solving for nuTilda, Initial residual = 0.000615113, Final residual = 2.83368e-06, No Iterations 8
ExecutionTime = 9.96 s  ClockTime = 10 s

forces wings output:
    sum of forces:
        pressure : (21.176 54.8123 -1.10806e-18)
        viscous  : (0.150765 -0.0875684 9.16946e-20)
        porous   : (0 0 0)
    sum of moments:
        pressure : (-2.74061 1.0588 5.31571)
        viscous  : (0.00437842 0.00753824 -0.0175062)
        porous   : (0 0 0)

Time = 116

smoothSolver:  Solving for Ux, Initial residual = 0.00141134, Final residual = 6.94183e-06, No Iterations 8
smoothSolver:  Solving for Uy, Initial residual = 0.000937693, Final residual = 5.82574e-06, No Iterations 8
GAMG:  Solving for p, Initial residual = 0.00289155, Final residual = 2.81137e-05, No Iterations 4
time step continuity errors : sum local = 1.039e-05, global = 2.91776e-16, cumulative = 3.48389e-15
smoothSolver:  Solving for nuTilda, Initial residual = 0.000605345, Final residual = 2.7901e-06, No Iterations 8
ExecutionTime = 10.05 s  ClockTime = 10 s

Time = 117

smoothSolver:  Solving for Ux, Initial residual = 0.00139956, Final residual = 6.89037e-06, No Iterations 8
smoothSolver:  Solving for Uy, Initial residual = 0.000930324, Final residual = 5.77882e-06, No Iterations 8
GAMG:  Solving for p, Initial residual = 0.00286264, Final residual = 2.84881e-05, No Iterations 4
time step continuity errors : sum local = 1.05584e-05, global = 2.91995e-16, cumulative = 3.77589e-15
smoothSolver:  Solving for nuTilda, Initial residual = 0.000595669, Final residual = 2.74684e-06, No Iterations 8
ExecutionTime = 10.13 s  ClockTime = 10 s

Time = 118

smoothSolver:  Solving for Ux, Initial residual = 0.00138775, Final residual = 6.83932e-06, No Iterations 8
smoothSolver:  Solving for Uy, Initial residual = 0.000922953, Final residual = 5.73242e-06, No Iterations 8
GAMG:  Solving for p, Initial residual = 0.00283442, Final residual = 2.38585e-05, No Iterations 5
time step continuity errors : sum local = 8.89219e-06, global = 1.0296e-17, cumulative = 3.78619e-15
smoothSolver:  Solving for nuTilda, Initial residual = 0.000586326, Final residual = 2.70395e-06, No Iterations 8
ExecutionTime = 10.21 s  ClockTime = 10 s

Time = 119

smoothSolver:  Solving for Ux, Initial residual = 0.0013765, Final residual = 6.79207e-06, No Iterations 8
smoothSolver:  Solving for Uy, Initial residual = 0.000914731, Final residual = 5.68228e-06, No Iterations 8
GAMG:  Solving for p, Initial residual = 0.00280672, Final residual = 1.83831e-05, No Iterations 5
time step continuity errors : sum local = 6.85456e-06, global = 9.00094e-17, cumulative = 3.87619e-15
smoothSolver:  Solving for nuTilda, Initial residual = 0.000577715, Final residual = 2.65876e-06, No Iterations 8
ExecutionTime = 10.29 s  ClockTime = 10 s

Time = 120

smoothSolver:  Solving for Ux, Initial residual = 0.00136519, Final residual = 6.74356e-06, No Iterations 8
smoothSolver:  Solving for Uy, Initial residual = 0.000906824, Final residual = 5.63326e-06, No Iterations 8
GAMG:  Solving for p, Initial residual = 0.00277646, Final residual = 2.61041e-05, No Iterations 4
time step continuity errors : sum local = 9.68744e-06, global = -1.00358e-16, cumulative = 3.77584e-15
smoothSolver:  Solving for nuTilda, Initial residual = 0.000568257, Final residual = 2.62042e-06, No Iterations 8
ExecutionTime = 10.37 s  ClockTime = 10 s

forces wings output:
    sum of forces:
        pressure : (21.4399 55.5424 -1.13016e-18)
        viscous  : (0.143082 -0.0844376 9.36818e-20)
        porous   : (0 0 0)
    sum of moments:
        pressure : (-2.77712 1.072 5.35405)
        viscous  : (0.00422188 0.00715411 -0.0168812)
        porous   : (0 0 0)

Time = 121

smoothSolver:  Solving for Ux, Initial residual = 0.00135338, Final residual = 6.69156e-06, No Iterations 8
smoothSolver:  Solving for Uy, Initial residual = 0.000899958, Final residual = 5.58888e-06, No Iterations 8
GAMG:  Solving for p, Initial residual = 0.00274401, Final residual = 2.57947e-05, No Iterations 4
time step continuity errors : sum local = 9.56416e-06, global = 1.47099e-16, cumulative = 3.92294e-15
smoothSolver:  Solving for nuTilda, Initial residual = 0.000559569, Final residual = 2.58304e-06, No Iterations 8
ExecutionTime = 10.46 s  ClockTime = 10 s

Time = 122

smoothSolver:  Solving for Ux, Initial residual = 0.00134165, Final residual = 6.6409e-06, No Iterations 8
smoothSolver:  Solving for Uy, Initial residual = 0.000892919, Final residual = 5.54403e-06, No Iterations 8
GAMG:  Solving for p, Initial residual = 0.00271276, Final residual = 2.01389e-05, No Iterations 5
[...]

forces wings output:
    sum of forces:
        pressure : (14.2161 31.7672 4.68558e-21)
        viscous  : (0.0535219 -0.0316882 8.98662e-21)
        porous   : (0 0 0)
    sum of moments:
        pressure : (-1.58836 0.710807 6.55301)
        viscous  : (0.00158441 0.00267609 -0.00710803)
        porous   : (0 0 0)

Time = 4971

smoothSolver:  Solving for Ux, Initial residual = 3.18831e-08, Final residual = 8.27671e-09, No Iterations 2
smoothSolver:  Solving for Uy, Initial residual = 8.32301e-08, Final residual = 5.7892e-09, No Iterations 4
GAMG:  Solving for p, Initial residual = 8.97708e-07, Final residual = 8.97708e-07, No Iterations 0
time step continuity errors : sum local = 3.45828e-07, global = 3.0745e-17, cumulative = 3.21364e-14
smoothSolver:  Solving for nuTilda, Initial residual = 3.87839e-08, Final residual = 8.53026e-09, No Iterations 2
ExecutionTime = 394.67 s  ClockTime = 394 s

Time = 4972

smoothSolver:  Solving for Ux, Initial residual = 3.15129e-08, Final residual = 8.19977e-09, No Iterations 2
smoothSolver:  Solving for Uy, Initial residual = 8.08767e-08, Final residual = 5.6559e-09, No Iterations 4
GAMG:  Solving for p, Initial residual = 8.04355e-07, Final residual = 8.04355e-07, No Iterations 0
time step continuity errors : sum local = 3.0987e-07, global = 8.42195e-17, cumulative = 3.22206e-14
smoothSolver:  Solving for nuTilda, Initial residual = 4.35821e-08, Final residual = 8.29098e-09, No Iterations 2
ExecutionTime = 394.73 s  ClockTime = 394 s

Time = 4973

smoothSolver:  Solving for Ux, Initial residual = 3.11201e-08, Final residual = 8.10417e-09, No Iterations 2
smoothSolver:  Solving for Uy, Initial residual = 7.9051e-08, Final residual = 5.49791e-09, No Iterations 4
GAMG:  Solving for p, Initial residual = 1.15401e-06, Final residual = 1.63123e-07, No Iterations 1
time step continuity errors : sum local = 6.29835e-08, global = -9.51075e-17, cumulative = 3.21255e-14
smoothSolver:  Solving for nuTilda, Initial residual = 3.77751e-08, Final residual = 8.25447e-09, No Iterations 2
ExecutionTime = 394.8 s  ClockTime = 394 s

Time = 4974

smoothSolver:  Solving for Ux, Initial residual = 3.21339e-08, Final residual = 8.36013e-09, No Iterations 2
smoothSolver:  Solving for Uy, Initial residual = 8.54236e-08, Final residual = 5.94351e-09, No Iterations 4
GAMG:  Solving for p, Initial residual = 7.96126e-07, Final residual = 7.96126e-07, No Iterations 0
time step continuity errors : sum local = 3.06731e-07, global = -2.21159e-16, cumulative = 3.19043e-14
smoothSolver:  Solving for nuTilda, Initial residual = 4.28345e-08, Final residual = 8.09132e-09, No Iterations 2
ExecutionTime = 394.86 s  ClockTime = 394 s

Time = 4975

smoothSolver:  Solving for Ux, Initial residual = 3.17528e-08, Final residual = 8.24419e-09, No Iterations 2
smoothSolver:  Solving for Uy, Initial residual = 8.25365e-08, Final residual = 5.77399e-09, No Iterations 4
GAMG:  Solving for p, Initial residual = 8.48734e-07, Final residual = 8.48734e-07, No Iterations 0
time step continuity errors : sum local = 3.26994e-07, global = -5.611e-17, cumulative = 3.18482e-14
smoothSolver:  Solving for nuTilda, Initial residual = 3.74752e-08, Final residual = 8.17454e-09, No Iterations 2
ExecutionTime = 394.92 s  ClockTime = 395 s

forces wings output:
    sum of forces:
        pressure : (14.2161 31.7672 4.68562e-21)
        viscous  : (0.0535182 -0.0316866 8.98317e-21)
        porous   : (0 0 0)
    sum of moments:
        pressure : (-1.58836 0.710807 6.55301)
        viscous  : (0.00158433 0.00267591 -0.00710771)
        porous   : (0 0 0)

Time = 4976

smoothSolver:  Solving for Ux, Initial residual = 3.13555e-08, Final residual = 8.15744e-09, No Iterations 2
smoothSolver:  Solving for Uy, Initial residual = 8.05127e-08, Final residual = 5.66e-09, No Iterations 4
GAMG:  Solving for p, Initial residual = 1.04365e-06, Final residual = 1.46394e-07, No Iterations 1
time step continuity errors : sum local = 5.65631e-08, global = -1.51042e-16, cumulative = 3.16972e-14
smoothSolver:  Solving for nuTilda, Initial residual = 4.21188e-08, Final residual = 7.90313e-09, No Iterations 2
ExecutionTime = 394.99 s  ClockTime = 395 s

Time = 4977

smoothSolver:  Solving for Ux, Initial residual = 3.18086e-08, Final residual = 8.31325e-09, No Iterations 2
smoothSolver:  Solving for Uy, Initial residual = 8.09326e-08, Final residual = 5.58645e-09, No Iterations 4
GAMG:  Solving for p, Initial residual = 8.14274e-07, Final residual = 8.14274e-07, No Iterations 0
time step continuity errors : sum local = 3.13749e-07, global = 4.29448e-16, cumulative = 3.21266e-14
smoothSolver:  Solving for nuTilda, Initial residual = 3.69349e-08, Final residual = 8.04717e-09, No Iterations 2
ExecutionTime = 395.05 s  ClockTime = 395 s

Time = 4978

smoothSolver:  Solving for Ux, Initial residual = 3.14537e-08, Final residual = 8.23993e-09, No Iterations 2
smoothSolver:  Solving for Uy, Initial residual = 7.86304e-08, Final residual = 5.48179e-09, No Iterations 4
GAMG:  Solving for p, Initial residual = 7.88812e-07, Final residual = 7.88812e-07, No Iterations 0
time step continuity errors : sum local = 3.03941e-07, global = 1.02247e-16, cumulative = 3.22288e-14
smoothSolver:  Solving for nuTilda, Initial residual = 4.18161e-08, Final residual = 7.84761e-09, No Iterations 2
ExecutionTime = 395.11 s  ClockTime = 395 s

Time = 4979

smoothSolver:  Solving for Ux, Initial residual = 3.10281e-08, Final residual = 8.10845e-09, No Iterations 2
smoothSolver:  Solving for Uy, Initial residual = 7.66858e-08, Final residual = 5.38629e-09, No Iterations 4
GAMG:  Solving for p, Initial residual = 1.02861e-06, Final residual = 1.40416e-07, No Iterations 1
time step continuity errors : sum local = 5.42723e-08, global = 1.76496e-17, cumulative = 3.22465e-14
smoothSolver:  Solving for nuTilda, Initial residual = 3.62731e-08, Final residual = 7.88548e-09, No Iterations 2
ExecutionTime = 395.17 s  ClockTime = 395 s

Time = 4980

smoothSolver:  Solving for Ux, Initial residual = 3.09394e-08, Final residual = 8.12937e-09, No Iterations 2
smoothSolver:  Solving for Uy, Initial residual = 7.55594e-08, Final residual = 5.22874e-09, No Iterations 4
GAMG:  Solving for p, Initial residual = 7.94448e-07, Final residual = 7.94448e-07, No Iterations 0
time step continuity errors : sum local = 3.06136e-07, global = 1.43895e-16, cumulative = 3.23904e-14
smoothSolver:  Solving for nuTilda, Initial residual = 4.11843e-08, Final residual = 7.725e-09, No Iterations 2
ExecutionTime = 395.23 s  ClockTime = 395 s

forces wings output:
    sum of forces:
        pressure : (14.2161 31.7671 4.68573e-21)
        viscous  : (0.0535222 -0.0316883 8.98683e-21)
        porous   : (0 0 0)
    sum of moments:
        pressure : (-1.58836 0.710806 6.55301)
        viscous  : (0.00158442 0.00267611 -0.00710805)
        porous   : (0 0 0)

Time = 4981

smoothSolver:  Solving for Ux, Initial residual = 3.06084e-08, Final residual = 8.04617e-09, No Iterations 2
smoothSolver:  Solving for Uy, Initial residual = 7.373e-08, Final residual = 5.10528e-09, No Iterations 4
GAMG:  Solving for p, Initial residual = 7.69627e-07, Final residual = 7.69627e-07, No Iterations 0
time step continuity errors : sum local = 2.96575e-07, global = 4.45304e-17, cumulative = 3.24349e-14
smoothSolver:  Solving for nuTilda, Initial residual = 3.58136e-08, Final residual = 7.81509e-09, No Iterations 2
ExecutionTime = 395.3 s  ClockTime = 395 s

Time = 4982

smoothSolver:  Solving for Ux, Initial residual = 3.03035e-08, Final residual = 7.98934e-09, No Iterations 2
smoothSolver:  Solving for Uy, Initial residual = 7.2227e-08, Final residual = 5.02469e-09, No Iterations 4
GAMG:  Solving for p, Initial residual = 9.8144e-07, Final residual = 9.8144e-07, No Iterations 0
time step continuity errors : sum local = 3.7816e-07, global = 1.9868e-16, cumulative = 3.26336e-14
smoothSolver:  Solving for nuTilda, Initial residual = 4.06665e-08, Final residual = 7.62093e-09, No Iterations 2
ExecutionTime = 395.35 s  ClockTime = 395 s

Time = 4983

smoothSolver:  Solving for Ux, Initial residual = 3.00002e-08, Final residual = 7.89725e-09, No Iterations 2
smoothSolver:  Solving for Uy, Initial residual = 7.08383e-08, Final residual = 4.92279e-09, No Iterations 4
GAMG:  Solving for p, Initial residual = 9.51538e-07, Final residual = 9.51538e-07, No Iterations 0
time step continuity errors : sum local = 3.66643e-07, global = -6.02323e-17, cumulative = 3.25734e-14
smoothSolver:  Solving for nuTilda, Initial residual = 3.54437e-08, Final residual = 7.74555e-09, No Iterations 2
ExecutionTime = 395.42 s  ClockTime = 395 s

Time = 4984

smoothSolver:  Solving for Ux, Initial residual = 2.98086e-08, Final residual = 7.86536e-09, No Iterations 2
smoothSolver:  Solving for Uy, Initial residual = 6.95528e-08, Final residual = 4.836e-09, No Iterations 4
GAMG:  Solving for p, Initial residual = 1.19553e-06, Final residual = 2.23756e-07, No Iterations 1
time step continuity errors : sum local = 8.65179e-08, global = 2.64672e-16, cumulative = 3.2838e-14
smoothSolver:  Solving for nuTilda, Initial residual = 3.9786e-08, Final residual = 7.38715e-09, No Iterations 2
ExecutionTime = 395.48 s  ClockTime = 395 s

Time = 4985

smoothSolver:  Solving for Ux, Initial residual = 3.13421e-08, Final residual = 8.18337e-09, No Iterations 2
smoothSolver:  Solving for Uy, Initial residual = 8.44067e-08, Final residual = 5.70983e-09, No Iterations 4
GAMG:  Solving for p, Initial residual = 8.53934e-07, Final residual = 8.53934e-07, No Iterations 0
time step continuity errors : sum local = 3.29108e-07, global = -1.34071e-16, cumulative = 3.2704e-14
smoothSolver:  Solving for nuTilda, Initial residual = 3.46631e-08, Final residual = 7.54866e-09, No Iterations 2
ExecutionTime = 395.54 s  ClockTime = 395 s

forces wings output:
    sum of forces:
        pressure : (14.2161 31.7671 4.6856e-21)
        viscous  : (0.0535184 -0.0316867 8.98317e-21)
        porous   : (0 0 0)
    sum of moments:
        pressure : (-1.58836 0.710806 6.55301)
        viscous  : (0.00158433 0.00267592 -0.00710772)
        porous   : (0 0 0)

Time = 4986

smoothSolver:  Solving for Ux, Initial residual = 3.09609e-08, Final residual = 8.12494e-09, No Iterations 2
smoothSolver:  Solving for Uy, Initial residual = 8.1517e-08, Final residual = 5.5408e-09, No Iterations 4
GAMG:  Solving for p, Initial residual = 8.43802e-07, Final residual = 8.43802e-07, No Iterations 0
time step continuity errors : sum local = 3.25205e-07, global = 8.26534e-17, cumulative = 3.27866e-14
smoothSolver:  Solving for nuTilda, Initial residual = 3.93093e-08, Final residual = 7.30571e-09, No Iterations 2
ExecutionTime = 395.61 s  ClockTime = 395 s

Time = 4987

smoothSolver:  Solving for Ux, Initial residual = 3.05475e-08, Final residual = 8.0216e-09, No Iterations 2
smoothSolver:  Solving for Uy, Initial residual = 7.89819e-08, Final residual = 5.38428e-09, No Iterations 4
GAMG:  Solving for p, Initial residual = 1.09976e-06, Final residual = 1.78144e-07, No Iterations 1
time step continuity errors : sum local = 6.86436e-08, global = 1.36277e-16, cumulative = 3.29229e-14
smoothSolver:  Solving for nuTilda, Initial residual = 3.38484e-08, Final residual = 7.33955e-09, No Iterations 2
ExecutionTime = 395.67 s  ClockTime = 395 s

Time = 4988

smoothSolver:  Solving for Ux, Initial residual = 3.17267e-08, Final residual = 8.30902e-09, No Iterations 2
smoothSolver:  Solving for Uy, Initial residual = 8.78625e-08, Final residual = 6.16526e-09, No Iterations 4
GAMG:  Solving for p, Initial residual = 8.30304e-07, Final residual = 8.30304e-07, No Iterations 0
time step continuity errors : sum local = 3.19954e-07, global = 8.96971e-17, cumulative = 3.30126e-14
smoothSolver:  Solving for nuTilda, Initial residual = 3.86862e-08, Final residual = 7.14823e-09, No Iterations 2
ExecutionTime = 395.74 s  ClockTime = 395 s

Time = 4989

smoothSolver:  Solving for Ux, Initial residual = 3.13149e-08, Final residual = 8.18253e-09, No Iterations 2
smoothSolver:  Solving for Uy, Initial residual = 8.53155e-08, Final residual = 6.00374e-09, No Iterations 4
GAMG:  Solving for p, Initial residual = 8.30779e-07, Final residual = 8.30779e-07, No Iterations 0
time step continuity errors : sum local = 3.20108e-07, global = -2.79722e-16, cumulative = 3.27329e-14
smoothSolver:  Solving for nuTilda, Initial residual = 3.34455e-08, Final residual = 7.25629e-09, No Iterations 2
ExecutionTime = 395.8 s  ClockTime = 395 s

Time = 4990

smoothSolver:  Solving for Ux, Initial residual = 3.09561e-08, Final residual = 8.11126e-09, No Iterations 2
smoothSolver:  Solving for Uy, Initial residual = 8.33887e-08, Final residual = 5.90333e-09, No Iterations 4
GAMG:  Solving for p, Initial residual = 1.04168e-06, Final residual = 1.6603e-07, No Iterations 1
time step continuity errors : sum local = 6.43345e-08, global = 7.7732e-17, cumulative = 3.28106e-14
smoothSolver:  Solving for nuTilda, Initial residual = 3.84819e-08, Final residual = 7.09701e-09, No Iterations 2
ExecutionTime = 395.86 s  ClockTime = 396 s

forces wings output:
    sum of forces:
        pressure : (14.2161 31.7671 4.67927e-21)
        viscous  : (0.0535222 -0.0316883 8.98761e-21)
        porous   : (0 0 0)
    sum of moments:
        pressure : (-1.58836 0.710806 6.553)
        viscous  : (0.00158442 0.00267611 -0.00710805)
        porous   : (0 0 0)

Time = 4991

smoothSolver:  Solving for Ux, Initial residual = 3.18005e-08, Final residual = 8.36234e-09, No Iterations 2
smoothSolver:  Solving for Uy, Initial residual = 8.66129e-08, Final residual = 5.90398e-09, No Iterations 4
GAMG:  Solving for p, Initial residual = 7.89979e-07, Final residual = 7.89979e-07, No Iterations 0
time step continuity errors : sum local = 3.04298e-07, global = 1.14443e-17, cumulative = 3.28221e-14
smoothSolver:  Solving for nuTilda, Initial residual = 3.33718e-08, Final residual = 7.25499e-09, No Iterations 2
ExecutionTime = 395.93 s  ClockTime = 396 s

Time = 4992

smoothSolver:  Solving for Ux, Initial residual = 3.14598e-08, Final residual = 8.29671e-09, No Iterations 2
smoothSolver:  Solving for Uy, Initial residual = 8.41064e-08, Final residual = 5.76829e-09, No Iterations 4
GAMG:  Solving for p, Initial residual = 7.74826e-07, Final residual = 7.74826e-07, No Iterations 0
time step continuity errors : sum local = 2.98461e-07, global = -2.67354e-17, cumulative = 3.27953e-14
smoothSolver:  Solving for nuTilda, Initial residual = 3.84765e-08, Final residual = 7.11829e-09, No Iterations 2
ExecutionTime = 395.99 s  ClockTime = 396 s

Time = 4993

smoothSolver:  Solving for Ux, Initial residual = 3.11774e-08, Final residual = 8.2214e-09, No Iterations 2
smoothSolver:  Solving for Uy, Initial residual = 8.17818e-08, Final residual = 5.62306e-09, No Iterations 4
GAMG:  Solving for p, Initial residual = 1.01349e-06, Final residual = 1.38906e-07, No Iterations 1
time step continuity errors : sum local = 5.38204e-08, global = 2.57428e-16, cumulative = 3.30527e-14
smoothSolver:  Solving for nuTilda, Initial residual = 3.30957e-08, Final residual = 7.18788e-09, No Iterations 2
ExecutionTime = 396.06 s  ClockTime = 396 s

Time = 4994

smoothSolver:  Solving for Ux, Initial residual = 3.11176e-08, Final residual = 8.22504e-09, No Iterations 2
smoothSolver:  Solving for Uy, Initial residual = 7.68036e-08, Final residual = 5.21242e-09, No Iterations 4
GAMG:  Solving for p, Initial residual = 7.75012e-07, Final residual = 7.75012e-07, No Iterations 0
time step continuity errors : sum local = 2.98624e-07, global = -1.28184e-16, cumulative = 3.29246e-14
smoothSolver:  Solving for nuTilda, Initial residual = 3.82373e-08, Final residual = 7.07885e-09, No Iterations 2
ExecutionTime = 396.12 s  ClockTime = 396 s

Time = 4995

smoothSolver:  Solving for Ux, Initial residual = 3.08702e-08, Final residual = 8.16763e-09, No Iterations 2
smoothSolver:  Solving for Uy, Initial residual = 7.45217e-08, Final residual = 5.07293e-09, No Iterations 4
GAMG:  Solving for p, Initial residual = 7.62111e-07, Final residual = 7.62111e-07, No Iterations 0
time step continuity errors : sum local = 2.93655e-07, global = -1.31009e-16, cumulative = 3.27936e-14
smoothSolver:  Solving for nuTilda, Initial residual = 3.30326e-08, Final residual = 7.20336e-09, No Iterations 2
ExecutionTime = 396.18 s  ClockTime = 396 s

forces wings output:
    sum of forces:
        pressure : (14.2161 31.7671 4.67922e-21)
        viscous  : (0.0535183 -0.0316867 8.98382e-21)
        porous   : (0 0 0)
    sum of moments:
        pressure : (-1.58836 0.710806 6.55299)
        viscous  : (0.00158433 0.00267592 -0.00710772)
        porous   : (0 0 0)

Time = 4996

smoothSolver:  Solving for Ux, Initial residual = 3.05905e-08, Final residual = 8.11737e-09, No Iterations 2
smoothSolver:  Solving for Uy, Initial residual = 7.25027e-08, Final residual = 4.97662e-09, No Iterations 4
GAMG:  Solving for p, Initial residual = 9.87633e-07, Final residual = 9.87633e-07, No Iterations 0
time step continuity errors : sum local = 3.80521e-07, global = -6.89484e-17, cumulative = 3.27246e-14
smoothSolver:  Solving for nuTilda, Initial residual = 3.79628e-08, Final residual = 7.03728e-09, No Iterations 2
ExecutionTime = 396.24 s  ClockTime = 396 s

Time = 4997

smoothSolver:  Solving for Ux, Initial residual = 3.03688e-08, Final residual = 8.063e-09, No Iterations 2
smoothSolver:  Solving for Uy, Initial residual = 7.07128e-08, Final residual = 4.85115e-09, No Iterations 4
GAMG:  Solving for p, Initial residual = 9.7656e-07, Final residual = 9.7656e-07, No Iterations 0
time step continuity errors : sum local = 3.76256e-07, global = 8.79789e-17, cumulative = 3.28126e-14
smoothSolver:  Solving for nuTilda, Initial residual = 3.28434e-08, Final residual = 7.19045e-09, No Iterations 2
ExecutionTime = 396.3 s  ClockTime = 396 s

Time = 4998

smoothSolver:  Solving for Ux, Initial residual = 3.0243e-08, Final residual = 8.0508e-09, No Iterations 2
smoothSolver:  Solving for Uy, Initial residual = 6.90806e-08, Final residual = 4.74709e-09, No Iterations 4
GAMG:  Solving for p, Initial residual = 1.24168e-06, Final residual = 2.61333e-07, No Iterations 1
time step continuity errors : sum local = 1.00769e-07, global = 8.05791e-18, cumulative = 3.28206e-14
smoothSolver:  Solving for nuTilda, Initial residual = 3.7177e-08, Final residual = 6.85506e-09, No Iterations 2
ExecutionTime = 396.36 s  ClockTime = 396 s

Time = 4999

smoothSolver:  Solving for Ux, Initial residual = 3.24752e-08, Final residual = 8.60221e-09, No Iterations 2
smoothSolver:  Solving for Uy, Initial residual = 8.45108e-08, Final residual = 5.59792e-09, No Iterations 4
GAMG:  Solving for p, Initial residual = 8.67598e-07, Final residual = 8.67598e-07, No Iterations 0
time step continuity errors : sum local = 3.34289e-07, global = -1.64176e-16, cumulative = 3.26565e-14
smoothSolver:  Solving for nuTilda, Initial residual = 3.2205e-08, Final residual = 7.04261e-09, No Iterations 2
ExecutionTime = 396.42 s  ClockTime = 396 s

Time = 5000

smoothSolver:  Solving for Ux, Initial residual = 3.20861e-08, Final residual = 8.49355e-09, No Iterations 2
smoothSolver:  Solving for Uy, Initial residual = 8.12365e-08, Final residual = 5.39902e-09, No Iterations 4
GAMG:  Solving for p, Initial residual = 8.53104e-07, Final residual = 8.53104e-07, No Iterations 0
time step continuity errors : sum local = 3.28706e-07, global = 2.00639e-16, cumulative = 3.28571e-14
smoothSolver:  Solving for nuTilda, Initial residual = 3.69364e-08, Final residual = 6.82195e-09, No Iterations 2
ExecutionTime = 396.62 s  ClockTime = 396 s

forces wings output:
    sum of forces:
        pressure : (14.2161 31.7671 4.67918e-21)
        viscous  : (0.0535223 -0.0316884 8.98759e-21)
        porous   : (0 0 0)
    sum of moments:
        pressure : (-1.58836 0.710805 6.55299)
        viscous  : (0.00158442 0.00267611 -0.00710804)
        porous   : (0 0 0)

End

