/*---------------------------------------------------------------------------*\
| =========                 |                                                 |
| \\      /  F ield         | OpenFOAM: The Open Source CFD Toolbox           |
|  \\    /   O peration     | Version:  2.3.0                                 |
|   \\  /    A nd           | Web:      www.OpenFOAM.org                      |
|    \\/     M anipulation  |                                                 |
\*---------------------------------------------------------------------------*/
Build  : 2.3.0-f5222ca19ce6
Exec   : simpleFoam -case Runs/first_flatplate_300_12/case
Date   : Jan 11 2015
Time   : 13:10:00
Host   : "lordvon-XPS-8300"
PID    : 6204
Case   : Runs/first_flatplate_300_12/case
nProcs : 1
sigFpe : Enabling floating point exception trapping (FOAM_SIGFPE).
fileModificationChecking : Monitoring run-time modified files using timeStampMaster
allowSystemOperations : Disallowing user-supplied system call operations

// * * * * * * * * * * * * * * * * * * * * * * * * * * * * * * * * * * * * * //
Create time

Create mesh for time = 0

Reading field p

Reading field U

Reading/calculating face flux field phi

Selecting incompressible transport model Newtonian
Selecting RAS turbulence model SpalartAllmaras
SpalartAllmarasCoeffs
{
    sigmaNut        0.66666;
    kappa           0.41;
    Cb1             0.1355;
    Cb2             0.622;
    Cw2             0.3;
    Cw3             2;
    Cv1             7.1;
    Cv2             5;
}

    Employing Ashford correction
No finite volume options present


SIMPLE: convergence criteria
    field p	 tolerance 1e-12
    field U	 tolerance 1e-12
    field nuTilda	 tolerance 1e-12


Starting time loop

forces wings:
    Not including porosity effects

Time = 1

smoothSolver:  Solving for Ux, Initial residual = 1, Final residual = 0.00310937, No Iterations 6
smoothSolver:  Solving for Uy, Initial residual = 1, Final residual = 0.00792288, No Iterations 4
GAMG:  Solving for p, Initial residual = 1, Final residual = 0.0075445, No Iterations 11
time step continuity errors : sum local = 0.000894505, global = -2.14584e-17, cumulative = -2.14584e-17
smoothSolver:  Solving for nuTilda, Initial residual = 1, Final residual = 0.00389977, No Iterations 4
ExecutionTime = 0.37 s  ClockTime = 1 s

Time = 2

smoothSolver:  Solving for Ux, Initial residual = 0.582787, Final residual = 0.0029354, No Iterations 8
smoothSolver:  Solving for Uy, Initial residual = 0.671598, Final residual = 0.00372136, No Iterations 8
GAMG:  Solving for p, Initial residual = 0.775225, Final residual = 0.00704717, No Iterations 6
time step continuity errors : sum local = 0.00186696, global = 1.3255e-16, cumulative = 1.11091e-16
smoothSolver:  Solving for nuTilda, Initial residual = 0.184742, Final residual = 0.000692991, No Iterations 6
ExecutionTime = 0.46 s  ClockTime = 1 s

Time = 3

smoothSolver:  Solving for Ux, Initial residual = 0.233514, Final residual = 0.00115501, No Iterations 8
smoothSolver:  Solving for Uy, Initial residual = 0.24441, Final residual = 0.00133552, No Iterations 8
GAMG:  Solving for p, Initial residual = 0.601568, Final residual = 0.00449985, No Iterations 9
time step continuity errors : sum local = 0.00164362, global = -1.09366e-16, cumulative = 1.72486e-18
smoothSolver:  Solving for nuTilda, Initial residual = 0.0939595, Final residual = 0.000822015, No Iterations 6
ExecutionTime = 0.57 s  ClockTime = 1 s

Time = 4

smoothSolver:  Solving for Ux, Initial residual = 0.0848346, Final residual = 0.000336638, No Iterations 8
smoothSolver:  Solving for Uy, Initial residual = 0.0789947, Final residual = 0.000407896, No Iterations 8
GAMG:  Solving for p, Initial residual = 0.490391, Final residual = 0.00407502, No Iterations 7
time step continuity errors : sum local = 0.00146639, global = 3.26121e-17, cumulative = 3.4337e-17
smoothSolver:  Solving for nuTilda, Initial residual = 0.0710687, Final residual = 0.000198868, No Iterations 8
ExecutionTime = 0.66 s  ClockTime = 1 s

Time = 5

smoothSolver:  Solving for Ux, Initial residual = 0.213358, Final residual = 0.00105776, No Iterations 8
smoothSolver:  Solving for Uy, Initial residual = 0.236147, Final residual = 0.00126092, No Iterations 8
GAMG:  Solving for p, Initial residual = 0.442345, Final residual = 0.00428871, No Iterations 6
time step continuity errors : sum local = 0.00162866, global = -4.23957e-17, cumulative = -8.05871e-18
smoothSolver:  Solving for nuTilda, Initial residual = 0.0585119, Final residual = 0.000183289, No Iterations 8
ExecutionTime = 0.75 s  ClockTime = 1 s

forces wings output:
    sum of forces:
        pressure : (-319.273 -1502.06 -1.59439e-18)
        viscous  : (0.518255 -0.076105 2.07666e-20)
        porous   : (0 0 0)
    sum of moments:
        pressure : (75.1031 -15.9637 -384.169)
        viscous  : (0.00380525 0.0259127 0.00840575)
        porous   : (0 0 0)

Time = 6

smoothSolver:  Solving for Ux, Initial residual = 0.174157, Final residual = 0.000817702, No Iterations 8
smoothSolver:  Solving for Uy, Initial residual = 0.220036, Final residual = 0.00116403, No Iterations 8
GAMG:  Solving for p, Initial residual = 0.358464, Final residual = 0.00233992, No Iterations 9
time step continuity errors : sum local = 0.000901007, global = -1.83516e-16, cumulative = -1.91575e-16
smoothSolver:  Solving for nuTilda, Initial residual = 0.0488351, Final residual = 0.000161234, No Iterations 8
ExecutionTime = 0.85 s  ClockTime = 1 s

Time = 7

smoothSolver:  Solving for Ux, Initial residual = 0.127545, Final residual = 0.000539754, No Iterations 8
smoothSolver:  Solving for Uy, Initial residual = 0.181831, Final residual = 0.000940478, No Iterations 8
GAMG:  Solving for p, Initial residual = 0.269521, Final residual = 0.00224778, No Iterations 6
time step continuity errors : sum local = 0.000841766, global = 3.01595e-17, cumulative = -1.61415e-16
smoothSolver:  Solving for nuTilda, Initial residual = 0.0410523, Final residual = 0.000139998, No Iterations 8
ExecutionTime = 0.94 s  ClockTime = 1 s

Time = 8

smoothSolver:  Solving for Ux, Initial residual = 0.142084, Final residual = 0.000682411, No Iterations 8
smoothSolver:  Solving for Uy, Initial residual = 0.18505, Final residual = 0.000971472, No Iterations 8
GAMG:  Solving for p, Initial residual = 0.298374, Final residual = 0.00227619, No Iterations 7
time step continuity errors : sum local = 0.000889487, global = -1.82457e-16, cumulative = -3.43872e-16
smoothSolver:  Solving for nuTilda, Initial residual = 0.0348515, Final residual = 0.000121598, No Iterations 8
ExecutionTime = 1.04 s  ClockTime = 1 s

Time = 9

smoothSolver:  Solving for Ux, Initial residual = 0.0578454, Final residual = 0.000245717, No Iterations 8
smoothSolver:  Solving for Uy, Initial residual = 0.0498122, Final residual = 0.000255407, No Iterations 8
GAMG:  Solving for p, Initial residual = 0.240622, Final residual = 0.00214158, No Iterations 8
time step continuity errors : sum local = 0.000831074, global = 2.46492e-16, cumulative = -9.738e-17
smoothSolver:  Solving for nuTilda, Initial residual = 0.0300107, Final residual = 0.000107233, No Iterations 8
ExecutionTime = 1.13 s  ClockTime = 1 s

Time = 10

smoothSolver:  Solving for Ux, Initial residual = 0.0626789, Final residual = 0.000269512, No Iterations 8
smoothSolver:  Solving for Uy, Initial residual = 0.0809377, Final residual = 0.000412757, No Iterations 8
GAMG:  Solving for p, Initial residual = 0.198524, Final residual = 0.00134675, No Iterations 5
time step continuity errors : sum local = 0.000506457, global = 2.47586e-16, cumulative = 1.50206e-16
smoothSolver:  Solving for nuTilda, Initial residual = 0.0262252, Final residual = 9.60411e-05, No Iterations 8
ExecutionTime = 1.22 s  ClockTime = 2 s

forces wings output:
    sum of forces:
        pressure : (-195.541 -919.946 -8.89499e-19)
        viscous  : (0.485175 -0.132023 2.4181e-20)
        porous   : (0 0 0)
    sum of moments:
        pressure : (45.9973 -9.77704 -241.234)
        viscous  : (0.00660113 0.0242588 -0.00724018)
        porous   : (0 0 0)

Time = 11

smoothSolver:  Solving for Ux, Initial residual = 0.0762758, Final residual = 0.000352986, No Iterations 8
smoothSolver:  Solving for Uy, Initial residual = 0.111417, Final residual = 0.000567246, No Iterations 8
GAMG:  Solving for p, Initial residual = 0.209022, Final residual = 0.0015392, No Iterations 7
time step continuity errors : sum local = 0.000592442, global = -1.55354e-16, cumulative = -5.14759e-18
smoothSolver:  Solving for nuTilda, Initial residual = 0.0231351, Final residual = 8.69036e-05, No Iterations 8
ExecutionTime = 1.32 s  ClockTime = 2 s

Time = 12

smoothSolver:  Solving for Ux, Initial residual = 0.0355293, Final residual = 0.000128826, No Iterations 8
smoothSolver:  Solving for Uy, Initial residual = 0.0289876, Final residual = 0.00012724, No Iterations 8
GAMG:  Solving for p, Initial residual = 0.160786, Final residual = 0.00137556, No Iterations 7
time step continuity errors : sum local = 0.000513344, global = -7.08728e-17, cumulative = -7.60204e-17
smoothSolver:  Solving for nuTilda, Initial residual = 0.0205762, Final residual = 7.88765e-05, No Iterations 8
ExecutionTime = 1.41 s  ClockTime = 2 s

Time = 13

smoothSolver:  Solving for Ux, Initial residual = 0.0509185, Final residual = 0.000212384, No Iterations 8
smoothSolver:  Solving for Uy, Initial residual = 0.0715728, Final residual = 0.000355829, No Iterations 8
GAMG:  Solving for p, Initial residual = 0.133865, Final residual = 0.000754273, No Iterations 6
time step continuity errors : sum local = 0.000278174, global = -3.02102e-16, cumulative = -3.78123e-16
smoothSolver:  Solving for nuTilda, Initial residual = 0.0183118, Final residual = 7.15729e-05, No Iterations 8
ExecutionTime = 1.5 s  ClockTime = 2 s

Time = 14

smoothSolver:  Solving for Ux, Initial residual = 0.0438772, Final residual = 0.000188542, No Iterations 8
smoothSolver:  Solving for Uy, Initial residual = 0.0535189, Final residual = 0.000264212, No Iterations 8
GAMG:  Solving for p, Initial residual = 0.141178, Final residual = 0.00100369, No Iterations 6
time step continuity errors : sum local = 0.00037859, global = 5.89991e-17, cumulative = -3.19124e-16
smoothSolver:  Solving for nuTilda, Initial residual = 0.0163813, Final residual = 6.5278e-05, No Iterations 8
ExecutionTime = 1.59 s  ClockTime = 2 s

Time = 15

smoothSolver:  Solving for Ux, Initial residual = 0.0241901, Final residual = 8.7004e-05, No Iterations 8
smoothSolver:  Solving for Uy, Initial residual = 0.0169956, Final residual = 7.24458e-05, No Iterations 8
GAMG:  Solving for p, Initial residual = 0.110577, Final residual = 0.00100815, No Iterations 6
time step continuity errors : sum local = 0.000378655, global = -1.54514e-16, cumulative = -4.73638e-16
smoothSolver:  Solving for nuTilda, Initial residual = 0.0147918, Final residual = 6.01471e-05, No Iterations 8
ExecutionTime = 1.68 s  ClockTime = 2 s

forces wings output:
    sum of forces:
        pressure : (-67.7425 -318.703 -4.24284e-19)
        viscous  : (0.472269 -0.123429 1.17575e-20)
        porous   : (0 0 0)
    sum of moments:
        pressure : (15.9352 -3.38712 -88.3789)
        viscous  : (0.00617146 0.0236135 -0.00592372)
        porous   : (0 0 0)

Time = 16

smoothSolver:  Solving for Ux, Initial residual = 0.029322, Final residual = 0.000118415, No Iterations 8
smoothSolver:  Solving for Uy, Initial residual = 0.0428176, Final residual = 0.000205372, No Iterations 8
GAMG:  Solving for p, Initial residual = 0.101821, Final residual = 0.000622688, No Iterations 6
time step continuity errors : sum local = 0.000230467, global = -6.35226e-17, cumulative = -5.3716e-16
smoothSolver:  Solving for nuTilda, Initial residual = 0.0134999, Final residual = 5.604e-05, No Iterations 8
ExecutionTime = 1.78 s  ClockTime = 2 s

Time = 17

smoothSolver:  Solving for Ux, Initial residual = 0.0231882, Final residual = 9.12513e-05, No Iterations 8
smoothSolver:  Solving for Uy, Initial residual = 0.033338, Final residual = 0.000154166, No Iterations 8
GAMG:  Solving for p, Initial residual = 0.10091, Final residual = 0.000762383, No Iterations 6
time step continuity errors : sum local = 0.000287611, global = 1.23026e-16, cumulative = -4.14134e-16
smoothSolver:  Solving for nuTilda, Initial residual = 0.0124403, Final residual = 5.2606e-05, No Iterations 8
ExecutionTime = 1.87 s  ClockTime = 2 s

Time = 18

smoothSolver:  Solving for Ux, Initial residual = 0.0172206, Final residual = 5.85601e-05, No Iterations 8
smoothSolver:  Solving for Uy, Initial residual = 0.019367, Final residual = 8.18054e-05, No Iterations 8
GAMG:  Solving for p, Initial residual = 0.0771773, Final residual = 0.000581555, No Iterations 5
time step continuity errors : sum local = 0.000215404, global = 2.20334e-16, cumulative = -1.93799e-16
smoothSolver:  Solving for nuTilda, Initial residual = 0.011509, Final residual = 4.94825e-05, No Iterations 8
ExecutionTime = 1.96 s  ClockTime = 2 s

Time = 19

smoothSolver:  Solving for Ux, Initial residual = 0.0206527, Final residual = 8.05348e-05, No Iterations 8
smoothSolver:  Solving for Uy, Initial residual = 0.0277905, Final residual = 0.000128986, No Iterations 8
GAMG:  Solving for p, Initial residual = 0.0719462, Final residual = 0.000458954, No Iterations 6
time step continuity errors : sum local = 0.000169445, global = 4.82922e-17, cumulative = -1.45507e-16
smoothSolver:  Solving for nuTilda, Initial residual = 0.0106402, Final residual = 4.6547e-05, No Iterations 8
ExecutionTime = 2.04 s  ClockTime = 2 s

Time = 20

smoothSolver:  Solving for Ux, Initial residual = 0.0150363, Final residual = 5.76245e-05, No Iterations 8
smoothSolver:  Solving for Uy, Initial residual = 0.014666, Final residual = 6.59239e-05, No Iterations 8
GAMG:  Solving for p, Initial residual = 0.0686613, Final residual = 0.000343327, No Iterations 6
time step continuity errors : sum local = 0.000127552, global = -5.41601e-18, cumulative = -1.50923e-16
smoothSolver:  Solving for nuTilda, Initial residual = 0.00985355, Final residual = 4.3842e-05, No Iterations 8
ExecutionTime = 2.13 s  ClockTime = 2 s

forces wings output:
    sum of forces:
        pressure : (-9.90072 -46.5792 -3.2587e-19)
        viscous  : (0.460295 -0.107343 4.61788e-21)
        porous   : (0 0 0)
    sum of moments:
        pressure : (2.32896 -0.495036 -16.9422)
        viscous  : (0.00536713 0.0230147 -0.00254118)
        porous   : (0 0 0)

Time = 21

smoothSolver:  Solving for Ux, Initial residual = 0.0127267, Final residual = 4.8817e-05, No Iterations 8
smoothSolver:  Solving for Uy, Initial residual = 0.0125394, Final residual = 5.55836e-05, No Iterations 8
GAMG:  Solving for p, Initial residual = 0.0545925, Final residual = 0.00028218, No Iterations 5
time step continuity errors : sum local = 0.000104439, global = -4.10514e-17, cumulative = -1.91974e-16
smoothSolver:  Solving for nuTilda, Initial residual = 0.00916351, Final residual = 4.14746e-05, No Iterations 8
ExecutionTime = 2.23 s  ClockTime = 3 s

Time = 22

smoothSolver:  Solving for Ux, Initial residual = 0.0115991, Final residual = 4.61784e-05, No Iterations 8
smoothSolver:  Solving for Uy, Initial residual = 0.0168245, Final residual = 7.85128e-05, No Iterations 8
GAMG:  Solving for p, Initial residual = 0.0504016, Final residual = 0.00024131, No Iterations 6
time step continuity errors : sum local = 8.92194e-05, global = 8.45868e-17, cumulative = -1.07388e-16
smoothSolver:  Solving for nuTilda, Initial residual = 0.00859093, Final residual = 3.93895e-05, No Iterations 8
ExecutionTime = 2.32 s  ClockTime = 3 s

Time = 23

smoothSolver:  Solving for Ux, Initial residual = 0.00737068, Final residual = 2.57915e-05, No Iterations 8
smoothSolver:  Solving for Uy, Initial residual = 0.00811838, Final residual = 3.50786e-05, No Iterations 8
GAMG:  Solving for p, Initial residual = 0.0460733, Final residual = 0.000424732, No Iterations 5
time step continuity errors : sum local = 0.000155169, global = -1.66075e-16, cumulative = -2.73463e-16
smoothSolver:  Solving for nuTilda, Initial residual = 0.00810546, Final residual = 3.74984e-05, No Iterations 8
ExecutionTime = 2.41 s  ClockTime = 3 s

Time = 24

smoothSolver:  Solving for Ux, Initial residual = 0.00840262, Final residual = 2.91616e-05, No Iterations 8
smoothSolver:  Solving for Uy, Initial residual = 0.0099041, Final residual = 4.39134e-05, No Iterations 8
GAMG:  Solving for p, Initial residual = 0.0379656, Final residual = 0.000252324, No Iterations 5
time step continuity errors : sum local = 9.19153e-05, global = -1.2011e-16, cumulative = -3.93572e-16
smoothSolver:  Solving for nuTilda, Initial residual = 0.00767152, Final residual = 3.56888e-05, No Iterations 8
ExecutionTime = 2.5 s  ClockTime = 3 s

Time = 25

smoothSolver:  Solving for Ux, Initial residual = 0.00870669, Final residual = 3.22211e-05, No Iterations 8
smoothSolver:  Solving for Uy, Initial residual = 0.00962967, Final residual = 4.30351e-05, No Iterations 8
GAMG:  Solving for p, Initial residual = 0.034579, Final residual = 0.000155179, No Iterations 6
time step continuity errors : sum local = 5.70918e-05, global = -1.36156e-16, cumulative = -5.29729e-16
smoothSolver:  Solving for nuTilda, Initial residual = 0.00727776, Final residual = 3.39766e-05, No Iterations 8
ExecutionTime = 2.59 s  ClockTime = 3 s

forces wings output:
    sum of forces:
        pressure : (5.32729 25.063 -2.70387e-19)
        viscous  : (0.447116 -0.0972519 2.20958e-21)
        porous   : (0 0 0)
    sum of moments:
        pressure : (-1.25315 0.266364 2.73275)
        viscous  : (0.0048626 0.0223558 -0.000698421)
        porous   : (0 0 0)

Time = 26

smoothSolver:  Solving for Ux, Initial residual = 0.00690851, Final residual = 2.5241e-05, No Iterations 8
smoothSolver:  Solving for Uy, Initial residual = 0.00462252, Final residual = 1.86942e-05, No Iterations 8
GAMG:  Solving for p, Initial residual = 0.0300358, Final residual = 0.000209149, No Iterations 5
time step continuity errors : sum local = 7.62976e-05, global = 6.27041e-17, cumulative = -4.67025e-16
smoothSolver:  Solving for nuTilda, Initial residual = 0.00692026, Final residual = 3.23755e-05, No Iterations 8
ExecutionTime = 2.68 s  ClockTime = 3 s

Time = 27

smoothSolver:  Solving for Ux, Initial residual = 0.00668416, Final residual = 2.5491e-05, No Iterations 8
smoothSolver:  Solving for Uy, Initial residual = 0.00689986, Final residual = 3.0194e-05, No Iterations 8
GAMG:  Solving for p, Initial residual = 0.0258499, Final residual = 0.000188682, No Iterations 5
time step continuity errors : sum local = 6.94926e-05, global = 9.37031e-17, cumulative = -3.73321e-16
smoothSolver:  Solving for nuTilda, Initial residual = 0.00660233, Final residual = 3.09232e-05, No Iterations 8
ExecutionTime = 2.77 s  ClockTime = 3 s

Time = 28

smoothSolver:  Solving for Ux, Initial residual = 0.00538462, Final residual = 2.04457e-05, No Iterations 8
smoothSolver:  Solving for Uy, Initial residual = 0.006145, Final residual = 2.74228e-05, No Iterations 8
GAMG:  Solving for p, Initial residual = 0.023513, Final residual = 0.000222588, No Iterations 5
time step continuity errors : sum local = 8.13914e-05, global = 1.71874e-16, cumulative = -2.01447e-16
smoothSolver:  Solving for nuTilda, Initial residual = 0.00630205, Final residual = 2.95761e-05, No Iterations 8
ExecutionTime = 2.85 s  ClockTime = 3 s

Time = 29

smoothSolver:  Solving for Ux, Initial residual = 0.00460284, Final residual = 1.70672e-05, No Iterations 8
smoothSolver:  Solving for Uy, Initial residual = 0.00405967, Final residual = 1.78675e-05, No Iterations 8
GAMG:  Solving for p, Initial residual = 0.0201475, Final residual = 0.000101367, No Iterations 5
time step continuity errors : sum local = 3.72191e-05, global = -4.40032e-16, cumulative = -6.41479e-16
smoothSolver:  Solving for nuTilda, Initial residual = 0.00602415, Final residual = 2.83483e-05, No Iterations 8
ExecutionTime = 2.94 s  ClockTime = 3 s

Time = 30

smoothSolver:  Solving for Ux, Initial residual = 0.00505655, Final residual = 1.9548e-05, No Iterations 8
smoothSolver:  Solving for Uy, Initial residual = 0.00460841, Final residual = 2.14325e-05, No Iterations 8
GAMG:  Solving for p, Initial residual = 0.0180434, Final residual = 0.000175374, No Iterations 5
time step continuity errors : sum local = 6.39919e-05, global = 4.35309e-17, cumulative = -5.97948e-16
smoothSolver:  Solving for nuTilda, Initial residual = 0.00575156, Final residual = 2.71489e-05, No Iterations 8
ExecutionTime = 3.02 s  ClockTime = 3 s

forces wings output:
    sum of forces:
        pressure : (6.12229 28.8032 -3.06516e-19)
        viscous  : (0.433446 -0.0919172 2.78133e-21)
        porous   : (0 0 0)
    sum of moments:
        pressure : (-1.44016 0.306115 3.8768)
        viscous  : (0.00459586 0.0216723 -9.13095e-05)
        porous   : (0 0 0)

Time = 31

smoothSolver:  Solving for Ux, Initial residual = 0.00496827, Final residual = 1.95902e-05, No Iterations 8
smoothSolver:  Solving for Uy, Initial residual = 0.00334534, Final residual = 1.58634e-05, No Iterations 8
GAMG:  Solving for p, Initial residual = 0.0159807, Final residual = 0.000126784, No Iterations 5
time step continuity errors : sum local = 4.65745e-05, global = -1.42715e-16, cumulative = -7.40663e-16
smoothSolver:  Solving for nuTilda, Initial residual = 0.00550093, Final residual = 2.60303e-05, No Iterations 8
bounding nuTilda, min: -9.84517e-05 max: 0.423156 average: 0.0850033
ExecutionTime = 3.12 s  ClockTime = 3 s

Time = 32

smoothSolver:  Solving for Ux, Initial residual = 0.0048706, Final residual = 1.9672e-05, No Iterations 8
smoothSolver:  Solving for Uy, Initial residual = 0.00289559, Final residual = 1.35733e-05, No Iterations 8
GAMG:  Solving for p, Initial residual = 0.0137664, Final residual = 0.000121294, No Iterations 4
time step continuity errors : sum local = 4.46835e-05, global = -7.7343e-17, cumulative = -8.18006e-16
smoothSolver:  Solving for nuTilda, Initial residual = 0.00526772, Final residual = 2.49711e-05, No Iterations 8
ExecutionTime = 3.2 s  ClockTime = 4 s

Time = 33

smoothSolver:  Solving for Ux, Initial residual = 0.00463243, Final residual = 1.89358e-05, No Iterations 8
smoothSolver:  Solving for Uy, Initial residual = 0.00335562, Final residual = 1.60411e-05, No Iterations 8
GAMG:  Solving for p, Initial residual = 0.0127744, Final residual = 9.90353e-05, No Iterations 5
time step continuity errors : sum local = 3.60317e-05, global = -4.41689e-17, cumulative = -8.62175e-16
smoothSolver:  Solving for nuTilda, Initial residual = 0.00506145, Final residual = 2.40102e-05, No Iterations 8
ExecutionTime = 3.29 s  ClockTime = 4 s

Time = 34

smoothSolver:  Solving for Ux, Initial residual = 0.00422826, Final residual = 1.72388e-05, No Iterations 8
smoothSolver:  Solving for Uy, Initial residual = 0.00270147, Final residual = 1.31679e-05, No Iterations 8
GAMG:  Solving for p, Initial residual = 0.0110693, Final residual = 6.22627e-05, No Iterations 5
time step continuity errors : sum local = 2.2919e-05, global = 6.52986e-17, cumulative = -7.96877e-16
smoothSolver:  Solving for nuTilda, Initial residual = 0.00486719, Final residual = 2.31011e-05, No Iterations 8
bounding nuTilda, min: -5.65874e-05 max: 0.423542 average: 0.0826287
ExecutionTime = 3.38 s  ClockTime = 4 s

Time = 35

smoothSolver:  Solving for Ux, Initial residual = 0.00406032, Final residual = 1.65197e-05, No Iterations 8
smoothSolver:  Solving for Uy, Initial residual = 0.00272409, Final residual = 1.3335e-05, No Iterations 8
GAMG:  Solving for p, Initial residual = 0.00965077, Final residual = 3.79127e-05, No Iterations 5
time step continuity errors : sum local = 1.39315e-05, global = -5.64689e-17, cumulative = -8.53345e-16
smoothSolver:  Solving for nuTilda, Initial residual = 0.00469005, Final residual = 2.22656e-05, No Iterations 8
ExecutionTime = 3.46 s  ClockTime = 4 s

forces wings output:
    sum of forces:
        pressure : (4.61616 21.7173 -3.47259e-19)
        viscous  : (0.419541 -0.0885624 3.57217e-21)
        porous   : (0 0 0)
    sum of moments:
        pressure : (-1.08587 0.230808 1.82001)
        viscous  : (0.00442812 0.020977 -6.30614e-06)
        porous   : (0 0 0)

Time = 36

smoothSolver:  Solving for Ux, Initial residual = 0.00408802, Final residual = 1.67874e-05, No Iterations 8
smoothSolver:  Solving for Uy, Initial residual = 0.0025437, Final residual = 1.27699e-05, No Iterations 8
GAMG:  Solving for p, Initial residual = 0.00890831, Final residual = 6.79993e-05, No Iterations 5
time step continuity errors : sum local = 2.47677e-05, global = -1.67433e-17, cumulative = -8.70089e-16
smoothSolver:  Solving for nuTilda, Initial residual = 0.00452372, Final residual = 2.1453e-05, No Iterations 8
ExecutionTime = 3.55 s  ClockTime = 4 s

Time = 37

smoothSolver:  Solving for Ux, Initial residual = 0.00410206, Final residual = 1.69895e-05, No Iterations 8
smoothSolver:  Solving for Uy, Initial residual = 0.00199184, Final residual = 1.01313e-05, No Iterations 8
GAMG:  Solving for p, Initial residual = 0.00777689, Final residual = 4.21078e-05, No Iterations 5
time step continuity errors : sum local = 1.5429e-05, global = -1.84987e-16, cumulative = -1.05508e-15
smoothSolver:  Solving for nuTilda, Initial residual = 0.00437004, Final residual = 2.06996e-05, No Iterations 8
bounding nuTilda, min: -0.000128021 max: 0.423661 average: 0.0804168
ExecutionTime = 3.64 s  ClockTime = 4 s

Time = 38

smoothSolver:  Solving for Ux, Initial residual = 0.00405756, Final residual = 1.68808e-05, No Iterations 8
smoothSolver:  Solving for Uy, Initial residual = 0.00217767, Final residual = 1.0785e-05, No Iterations 8
GAMG:  Solving for p, Initial residual = 0.00700277, Final residual = 4.99559e-05, No Iterations 5
time step continuity errors : sum local = 1.84683e-05, global = 7.64007e-17, cumulative = -9.78675e-16
smoothSolver:  Solving for nuTilda, Initial residual = 0.00422394, Final residual = 1.99696e-05, No Iterations 8
ExecutionTime = 3.73 s  ClockTime = 4 s

Time = 39

smoothSolver:  Solving for Ux, Initial residual = 0.00394015, Final residual = 1.64167e-05, No Iterations 8
smoothSolver:  Solving for Uy, Initial residual = 0.00216702, Final residual = 1.08772e-05, No Iterations 8
GAMG:  Solving for p, Initial residual = 0.00670951, Final residual = 4.29558e-05, No Iterations 5
time step continuity errors : sum local = 1.56817e-05, global = 3.02078e-16, cumulative = -6.76597e-16
smoothSolver:  Solving for nuTilda, Initial residual = 0.00408646, Final residual = 1.92958e-05, No Iterations 8
ExecutionTime = 3.81 s  ClockTime = 4 s

Time = 40

smoothSolver:  Solving for Ux, Initial residual = 0.00380209, Final residual = 1.58437e-05, No Iterations 8
smoothSolver:  Solving for Uy, Initial residual = 0.0020361, Final residual = 1.03199e-05, No Iterations 8
GAMG:  Solving for p, Initial residual = 0.0059875, Final residual = 5.28808e-05, No Iterations 4
time step continuity errors : sum local = 1.92094e-05, global = -8.12285e-17, cumulative = -7.57825e-16
smoothSolver:  Solving for nuTilda, Initial residual = 0.00395399, Final residual = 1.86524e-05, No Iterations 8
bounding nuTilda, min: -0.000176707 max: 0.423636 average: 0.0783487
ExecutionTime = 3.9 s  ClockTime = 4 s

forces wings output:
    sum of forces:
        pressure : (3.71265 17.4667 -3.68236e-19)
        viscous  : (0.40597 -0.0857882 4.27429e-21)
        porous   : (0 0 0)
    sum of moments:
        pressure : (-0.873335 0.185633 0.509119)
        viscous  : (0.00428941 0.0202985 -3.59751e-05)
        porous   : (0 0 0)

Time = 41

smoothSolver:  Solving for Ux, Initial residual = 0.0037186, Final residual = 1.55753e-05, No Iterations 8
smoothSolver:  Solving for Uy, Initial residual = 0.00208143, Final residual = 1.05503e-05, No Iterations 8
GAMG:  Solving for p, Initial residual = 0.00550803, Final residual = 2.21822e-05, No Iterations 5
time step continuity errors : sum local = 8.15868e-06, global = 7.81218e-17, cumulative = -6.79703e-16
smoothSolver:  Solving for nuTilda, Initial residual = 0.0038273, Final residual = 1.80473e-05, No Iterations 8
ExecutionTime = 3.99 s  ClockTime = 4 s

Time = 42

smoothSolver:  Solving for Ux, Initial residual = 0.00367099, Final residual = 1.55374e-05, No Iterations 8
smoothSolver:  Solving for Uy, Initial residual = 0.0018889, Final residual = 9.76377e-06, No Iterations 8
GAMG:  Solving for p, Initial residual = 0.0052492, Final residual = 2.39656e-05, No Iterations 5
time step continuity errors : sum local = 8.77798e-06, global = -1.42515e-17, cumulative = -6.93955e-16
smoothSolver:  Solving for nuTilda, Initial residual = 0.00370489, Final residual = 1.74599e-05, No Iterations 8
bounding nuTilda, min: -2.32857e-06 max: 0.423556 average: 0.0770424
ExecutionTime = 4.08 s  ClockTime = 4 s

Time = 43

smoothSolver:  Solving for Ux, Initial residual = 0.00360043, Final residual = 1.54073e-05, No Iterations 8
smoothSolver:  Solving for Uy, Initial residual = 0.00177478, Final residual = 9.23605e-06, No Iterations 8
GAMG:  Solving for p, Initial residual = 0.00476143, Final residual = 3.43613e-05, No Iterations 4
time step continuity errors : sum local = 1.25798e-05, global = -1.22664e-16, cumulative = -8.16619e-16
smoothSolver:  Solving for nuTilda, Initial residual = 0.00358808, Final residual = 1.6897e-05, No Iterations 8
ExecutionTime = 4.17 s  ClockTime = 5 s

Time = 44

smoothSolver:  Solving for Ux, Initial residual = 0.00349396, Final residual = 1.50998e-05, No Iterations 8
smoothSolver:  Solving for Uy, Initial residual = 0.00176466, Final residual = 9.23501e-06, No Iterations 8
GAMG:  Solving for p, Initial residual = 0.00444522, Final residual = 3.7114e-05, No Iterations 4
time step continuity errors : sum local = 1.36331e-05, global = 1.01925e-16, cumulative = -7.14694e-16
smoothSolver:  Solving for nuTilda, Initial residual = 0.0034749, Final residual = 1.63562e-05, No Iterations 8
bounding nuTilda, min: -1.60048e-05 max: 0.423454 average: 0.0757897
ExecutionTime = 4.25 s  ClockTime = 5 s

Time = 45

smoothSolver:  Solving for Ux, Initial residual = 0.00337513, Final residual = 1.47029e-05, No Iterations 8
smoothSolver:  Solving for Uy, Initial residual = 0.00168969, Final residual = 9.01911e-06, No Iterations 8
GAMG:  Solving for p, Initial residual = 0.00423503, Final residual = 3.34405e-05, No Iterations 4
time step continuity errors : sum local = 1.22026e-05, global = -1.84093e-16, cumulative = -8.98787e-16
smoothSolver:  Solving for nuTilda, Initial residual = 0.00336658, Final residual = 1.58424e-05, No Iterations 8
ExecutionTime = 4.34 s  ClockTime = 5 s

forces wings output:
    sum of forces:
        pressure : (3.53624 16.6367 -3.75819e-19)
        viscous  : (0.392524 -0.0830474 4.44319e-21)
        porous   : (0 0 0)
    sum of moments:
        pressure : (-0.831837 0.176812 0.202176)
        viscous  : (0.00415237 0.0196262 -7.18846e-05)
        porous   : (0 0 0)

Time = 46

smoothSolver:  Solving for Ux, Initial residual = 0.00327277, Final residual = 1.4341e-05, No Iterations 8
smoothSolver:  Solving for Uy, Initial residual = 0.00167386, Final residual = 9.03421e-06, No Iterations 8
GAMG:  Solving for p, Initial residual = 0.00388094, Final residual = 2.37714e-05, No Iterations 4
time step continuity errors : sum local = 8.73654e-06, global = -2.48962e-18, cumulative = -9.01276e-16
smoothSolver:  Solving for nuTilda, Initial residual = 0.00326247, Final residual = 1.53485e-05, No Iterations 8
bounding nuTilda, min: -2.20291e-05 max: 0.423353 average: 0.0745867
ExecutionTime = 4.42 s  ClockTime = 5 s

Time = 47

smoothSolver:  Solving for Ux, Initial residual = 0.00320291, Final residual = 1.41061e-05, No Iterations 8
smoothSolver:  Solving for Uy, Initial residual = 0.00162646, Final residual = 8.86066e-06, No Iterations 8
GAMG:  Solving for p, Initial residual = 0.00356312, Final residual = 2.68769e-05, No Iterations 4
time step continuity errors : sum local = 9.85536e-06, global = 1.08652e-16, cumulative = -7.92624e-16
smoothSolver:  Solving for nuTilda, Initial residual = 0.00316201, Final residual = 1.48744e-05, No Iterations 8
ExecutionTime = 4.51 s  ClockTime = 5 s

Time = 48

smoothSolver:  Solving for Ux, Initial residual = 0.00315179, Final residual = 1.39527e-05, No Iterations 8
smoothSolver:  Solving for Uy, Initial residual = 0.00155828, Final residual = 8.58219e-06, No Iterations 8
GAMG:  Solving for p, Initial residual = 0.0033136, Final residual = 2.43647e-05, No Iterations 4
time step continuity errors : sum local = 8.93813e-06, global = -1.71166e-16, cumulative = -9.6379e-16
smoothSolver:  Solving for nuTilda, Initial residual = 0.00306469, Final residual = 1.44229e-05, No Iterations 8
bounding nuTilda, min: -2.51332e-05 max: 0.423268 average: 0.0734305
ExecutionTime = 4.6 s  ClockTime = 5 s

Time = 49

smoothSolver:  Solving for Ux, Initial residual = 0.00309783, Final residual = 1.3786e-05, No Iterations 8
smoothSolver:  Solving for Uy, Initial residual = 0.00151505, Final residual = 8.39941e-06, No Iterations 8
GAMG:  Solving for p, Initial residual = 0.00307144, Final residual = 1.97658e-05, No Iterations 4
time step continuity errors : sum local = 7.20221e-06, global = -1.21665e-16, cumulative = -1.08546e-15
smoothSolver:  Solving for nuTilda, Initial residual = 0.00296983, Final residual = 1.39885e-05, No Iterations 8
ExecutionTime = 4.68 s  ClockTime = 5 s

Time = 50

smoothSolver:  Solving for Ux, Initial residual = 0.00303281, Final residual = 1.35654e-05, No Iterations 8
smoothSolver:  Solving for Uy, Initial residual = 0.00147175, Final residual = 8.24624e-06, No Iterations 8
GAMG:  Solving for p, Initial residual = 0.00288534, Final residual = 1.83681e-05, No Iterations 4
time step continuity errors : sum local = 6.73309e-06, global = 1.50145e-16, cumulative = -9.3531e-16
smoothSolver:  Solving for nuTilda, Initial residual = 0.00287858, Final residual = 1.35725e-05, No Iterations 8
bounding nuTilda, min: -2.586e-05 max: 0.423201 average: 0.0723182
ExecutionTime = 4.76 s  ClockTime = 5 s

forces wings output:
    sum of forces:
        pressure : (3.70961 17.4524 -3.8449e-19)
        viscous  : (0.379431 -0.0803189 4.69957e-21)
        porous   : (0 0 0)
    sum of moments:
        pressure : (-0.87262 0.185481 0.362667)
        viscous  : (0.00401594 0.0189716 -8.53002e-05)
        porous   : (0 0 0)

Time = 51

smoothSolver:  Solving for Ux, Initial residual = 0.00296083, Final residual = 1.32912e-05, No Iterations 8
smoothSolver:  Solving for Uy, Initial residual = 0.00144686, Final residual = 8.2021e-06, No Iterations 8
GAMG:  Solving for p, Initial residual = 0.00267654, Final residual = 1.38661e-05, No Iterations 4
time step continuity errors : sum local = 5.08302e-06, global = -2.36051e-16, cumulative = -1.17136e-15
smoothSolver:  Solving for nuTilda, Initial residual = 0.00279136, Final residual = 1.3175e-05, No Iterations 8
ExecutionTime = 4.85 s  ClockTime = 5 s

Time = 52

smoothSolver:  Solving for Ux, Initial residual = 0.00289663, Final residual = 1.30301e-05, No Iterations 8
smoothSolver:  Solving for Uy, Initial residual = 0.00142932, Final residual = 8.18263e-06, No Iterations 8
GAMG:  Solving for p, Initial residual = 0.00250748, Final residual = 1.41649e-05, No Iterations 4
time step continuity errors : sum local = 5.19276e-06, global = -6.44773e-17, cumulative = -1.23584e-15
smoothSolver:  Solving for nuTilda, Initial residual = 0.00270843, Final residual = 1.27956e-05, No Iterations 8
bounding nuTilda, min: -2.43758e-05 max: 0.423154 average: 0.0712473
ExecutionTime = 4.94 s  ClockTime = 5 s

Time = 53

smoothSolver:  Solving for Ux, Initial residual = 0.00284862, Final residual = 1.28223e-05, No Iterations 8
smoothSolver:  Solving for Uy, Initial residual = 0.00140498, Final residual = 8.11186e-06, No Iterations 8
GAMG:  Solving for p, Initial residual = 0.00237168, Final residual = 1.66895e-05, No Iterations 4
time step continuity errors : sum local = 6.1295e-06, global = 6.17676e-17, cumulative = -1.17407e-15
smoothSolver:  Solving for nuTilda, Initial residual = 0.00263008, Final residual = 1.24323e-05, No Iterations 8
ExecutionTime = 5.02 s  ClockTime = 5 s

Time = 54

smoothSolver:  Solving for Ux, Initial residual = 0.00281341, Final residual = 1.26593e-05, No Iterations 8
smoothSolver:  Solving for Uy, Initial residual = 0.00137994, Final residual = 8.01344e-06, No Iterations 8
GAMG:  Solving for p, Initial residual = 0.0022406, Final residual = 1.82861e-05, No Iterations 4
time step continuity errors : sum local = 6.73528e-06, global = 2.1266e-16, cumulative = -9.61411e-16
smoothSolver:  Solving for nuTilda, Initial residual = 0.00255524, Final residual = 1.20852e-05, No Iterations 8
bounding nuTilda, min: -1.98164e-05 max: 0.423126 average: 0.0702153
ExecutionTime = 5.11 s  ClockTime = 5 s

Time = 55

smoothSolver:  Solving for Ux, Initial residual = 0.00278093, Final residual = 1.2508e-05, No Iterations 8
smoothSolver:  Solving for Uy, Initial residual = 0.00136087, Final residual = 7.92436e-06, No Iterations 8
GAMG:  Solving for p, Initial residual = 0.00214432, Final residual = 1.26539e-05, No Iterations 4
time step continuity errors : sum local = 4.62674e-06, global = -1.35302e-16, cumulative = -1.09671e-15
smoothSolver:  Solving for nuTilda, Initial residual = 0.00248357, Final residual = 1.17477e-05, No Iterations 8
ExecutionTime = 5.19 s  ClockTime = 6 s

forces wings output:
    sum of forces:
        pressure : (3.83802 18.0565 -3.93132e-19)
        viscous  : (0.366702 -0.0776292 4.9289e-21)
        porous   : (0 0 0)
    sum of moments:
        pressure : (-0.902825 0.191901 0.432032)
        viscous  : (0.00388146 0.0183351 -8.78804e-05)
        porous   : (0 0 0)

Time = 56

smoothSolver:  Solving for Ux, Initial residual = 0.00274448, Final residual = 1.23386e-05, No Iterations 8
smoothSolver:  Solving for Uy, Initial residual = 0.00134739, Final residual = 7.87368e-06, No Iterations 8
GAMG:  Solving for p, Initial residual = 0.00206955, Final residual = 1.04107e-05, No Iterations 4
time step continuity errors : sum local = 3.80973e-06, global = 9.99413e-17, cumulative = -9.96773e-16
smoothSolver:  Solving for nuTilda, Initial residual = 0.00241546, Final residual = 1.14227e-05, No Iterations 8
bounding nuTilda, min: -1.29779e-05 max: 0.423115 average: 0.0692201
ExecutionTime = 5.28 s  ClockTime = 6 s

Time = 57

smoothSolver:  Solving for Ux, Initial residual = 0.00270396, Final residual = 1.2146e-05, No Iterations 8
smoothSolver:  Solving for Uy, Initial residual = 0.00134036, Final residual = 7.85367e-06, No Iterations 8
GAMG:  Solving for p, Initial residual = 0.00200386, Final residual = 9.40031e-06, No Iterations 4
time step continuity errors : sum local = 3.44567e-06, global = -1.79263e-16, cumulative = -1.17604e-15
smoothSolver:  Solving for nuTilda, Initial residual = 0.00235008, Final residual = 1.11123e-05, No Iterations 8
ExecutionTime = 5.36 s  ClockTime = 6 s

Time = 58

smoothSolver:  Solving for Ux, Initial residual = 0.00266243, Final residual = 1.19497e-05, No Iterations 8
smoothSolver:  Solving for Uy, Initial residual = 0.00133387, Final residual = 7.83859e-06, No Iterations 8
GAMG:  Solving for p, Initial residual = 0.00196057, Final residual = 7.724e-06, No Iterations 4
time step continuity errors : sum local = 2.85341e-06, global = 3.34e-17, cumulative = -1.14264e-15
smoothSolver:  Solving for nuTilda, Initial residual = 0.00228793, Final residual = 1.08148e-05, No Iterations 8
bounding nuTilda, min: -4.30912e-06 max: 0.423117 average: 0.0682596
ExecutionTime = 5.44 s  ClockTime = 6 s

Time = 59

smoothSolver:  Solving for Ux, Initial residual = 0.00262524, Final residual = 1.17799e-05, No Iterations 8
smoothSolver:  Solving for Uy, Initial residual = 0.00132428, Final residual = 7.80507e-06, No Iterations 8
GAMG:  Solving for p, Initial residual = 0.00191839, Final residual = 8.98631e-06, No Iterations 4
time step continuity errors : sum local = 3.29142e-06, global = 1.53257e-16, cumulative = -9.89379e-16
smoothSolver:  Solving for nuTilda, Initial residual = 0.00222828, Final residual = 1.05284e-05, No Iterations 8
ExecutionTime = 5.53 s  ClockTime = 6 s

Time = 60

smoothSolver:  Solving for Ux, Initial residual = 0.00258951, Final residual = 1.16208e-05, No Iterations 8
smoothSolver:  Solving for Uy, Initial residual = 0.00131641, Final residual = 7.76922e-06, No Iterations 8
GAMG:  Solving for p, Initial residual = 0.0018806, Final residual = 9.78234e-06, No Iterations 4
time step continuity errors : sum local = 3.57951e-06, global = 1.27623e-17, cumulative = -9.76617e-16
smoothSolver:  Solving for nuTilda, Initial residual = 0.0021711, Final residual = 1.02549e-05, No Iterations 8
ExecutionTime = 5.61 s  ClockTime = 6 s

forces wings output:
    sum of forces:
        pressure : (3.9166 18.4262 -3.98976e-19)
        viscous  : (0.354276 -0.075002 5.10222e-21)
        porous   : (0 0 0)
    sum of moments:
        pressure : (-0.921309 0.19583 0.429773)
        viscous  : (0.0037501 0.0177138 -8.57521e-05)
        porous   : (0 0 0)

Time = 61

smoothSolver:  Solving for Ux, Initial residual = 0.0025561, Final residual = 1.14763e-05, No Iterations 8
smoothSolver:  Solving for Uy, Initial residual = 0.00130804, Final residual = 7.73012e-06, No Iterations 8
GAMG:  Solving for p, Initial residual = 0.00184822, Final residual = 1.01221e-05, No Iterations 4
time step continuity errors : sum local = 3.70656e-06, global = -6.78728e-17, cumulative = -1.04449e-15
smoothSolver:  Solving for nuTilda, Initial residual = 0.0021164, Final residual = 9.99408e-06, No Iterations 8
bounding nuTilda, min: -0.000129089 max: 0.423136 average: 0.0668798
ExecutionTime = 5.7 s  ClockTime = 6 s

Time = 62

smoothSolver:  Solving for Ux, Initial residual = 0.00252353, Final residual = 1.13353e-05, No Iterations 8
smoothSolver:  Solving for Uy, Initial residual = 0.00130039, Final residual = 7.6965e-06, No Iterations 8
GAMG:  Solving for p, Initial residual = 0.00181683, Final residual = 1.03492e-05, No Iterations 4
time step continuity errors : sum local = 3.7922e-06, global = 2.71472e-16, cumulative = -7.73017e-16
smoothSolver:  Solving for nuTilda, Initial residual = 0.0020635, Final residual = 9.73961e-06, No Iterations 8
ExecutionTime = 5.78 s  ClockTime = 6 s

Time = 63

smoothSolver:  Solving for Ux, Initial residual = 0.00249198, Final residual = 1.11957e-05, No Iterations 8
smoothSolver:  Solving for Uy, Initial residual = 0.00129263, Final residual = 7.66562e-06, No Iterations 8
GAMG:  Solving for p, Initial residual = 0.00179253, Final residual = 1.01166e-05, No Iterations 4
time step continuity errors : sum local = 3.70873e-06, global = -2.01942e-16, cumulative = -9.7496e-16
smoothSolver:  Solving for nuTilda, Initial residual = 0.00201157, Final residual = 9.48847e-06, No Iterations 8
ExecutionTime = 5.87 s  ClockTime = 6 s

Time = 64

smoothSolver:  Solving for Ux, Initial residual = 0.00246119, Final residual = 1.10578e-05, No Iterations 8
smoothSolver:  Solving for Uy, Initial residual = 0.00128471, Final residual = 7.635e-06, No Iterations 8
GAMG:  Solving for p, Initial residual = 0.00176879, Final residual = 1.01466e-05, No Iterations 4
time step continuity errors : sum local = 3.72002e-06, global = 2.99838e-16, cumulative = -6.75122e-16
smoothSolver:  Solving for nuTilda, Initial residual = 0.00196195, Final residual = 9.24764e-06, No Iterations 8
bounding nuTilda, min: -7.4876e-05 max: 0.423167 average: 0.0655685
ExecutionTime = 5.95 s  ClockTime = 6 s

Time = 65

smoothSolver:  Solving for Ux, Initial residual = 0.00243181, Final residual = 1.09268e-05, No Iterations 8
smoothSolver:  Solving for Uy, Initial residual = 0.00127654, Final residual = 7.6025e-06, No Iterations 8
GAMG:  Solving for p, Initial residual = 0.00174926, Final residual = 1.01178e-05, No Iterations 4
time step continuity errors : sum local = 3.70817e-06, global = 1.28373e-16, cumulative = -5.46748e-16
smoothSolver:  Solving for nuTilda, Initial residual = 0.00191416, Final residual = 9.01653e-06, No Iterations 8
ExecutionTime = 6.03 s  ClockTime = 6 s

forces wings output:
    sum of forces:
        pressure : (4.03032 18.9612 -4.02624e-19)
        viscous  : (0.342266 -0.0724702 5.25111e-21)
        porous   : (0 0 0)
    sum of moments:
        pressure : (-0.948061 0.201516 0.476549)
        viscous  : (0.00362351 0.0171133 -8.04785e-05)
        porous   : (0 0 0)

Time = 66

smoothSolver:  Solving for Ux, Initial residual = 0.00240318, Final residual = 1.08036e-05, No Iterations 8
smoothSolver:  Solving for Uy, Initial residual = 0.00126896, Final residual = 7.57179e-06, No Iterations 8
GAMG:  Solving for p, Initial residual = 0.00172818, Final residual = 1.04903e-05, No Iterations 4
time step continuity errors : sum local = 3.8418e-06, global = 7.41763e-17, cumulative = -4.72572e-16
smoothSolver:  Solving for nuTilda, Initial residual = 0.00186815, Final residual = 8.79457e-06, No Iterations 8
ExecutionTime = 6.13 s  ClockTime = 6 s

Time = 67

smoothSolver:  Solving for Ux, Initial residual = 0.00237577, Final residual = 1.069e-05, No Iterations 8
smoothSolver:  Solving for Uy, Initial residual = 0.00126127, Final residual = 7.54193e-06, No Iterations 8
GAMG:  Solving for p, Initial residual = 0.00170332, Final residual = 1.08597e-05, No Iterations 4
time step continuity errors : sum local = 3.97688e-06, global = 2.41101e-16, cumulative = -2.31471e-16
smoothSolver:  Solving for nuTilda, Initial residual = 0.00182383, Final residual = 8.57935e-06, No Iterations 8
bounding nuTilda, min: -1.28348e-05 max: 0.4232 average: 0.0643205
ExecutionTime = 6.22 s  ClockTime = 7 s

Time = 68

smoothSolver:  Solving for Ux, Initial residual = 0.00234875, Final residual = 1.05814e-05, No Iterations 8
smoothSolver:  Solving for Uy, Initial residual = 0.00125411, Final residual = 7.51432e-06, No Iterations 8
GAMG:  Solving for p, Initial residual = 0.00167511, Final residual = 1.11856e-05, No Iterations 4
time step continuity errors : sum local = 4.09543e-06, global = -7.24828e-17, cumulative = -3.03954e-16
smoothSolver:  Solving for nuTilda, Initial residual = 0.0017813, Final residual = 8.36883e-06, No Iterations 8
ExecutionTime = 6.3 s  ClockTime = 7 s

Time = 69

smoothSolver:  Solving for Ux, Initial residual = 0.00232284, Final residual = 1.04759e-05, No Iterations 8
smoothSolver:  Solving for Uy, Initial residual = 0.00124709, Final residual = 7.48676e-06, No Iterations 8
GAMG:  Solving for p, Initial residual = 0.00165192, Final residual = 1.09295e-05, No Iterations 4
time step continuity errors : sum local = 4.00193e-06, global = 1.87292e-16, cumulative = -1.16662e-16
smoothSolver:  Solving for nuTilda, Initial residual = 0.00173967, Final residual = 8.16701e-06, No Iterations 8
ExecutionTime = 6.39 s  ClockTime = 7 s

Time = 70

smoothSolver:  Solving for Ux, Initial residual = 0.00229783, Final residual = 1.03717e-05, No Iterations 8
smoothSolver:  Solving for Uy, Initial residual = 0.00123994, Final residual = 7.45887e-06, No Iterations 8
GAMG:  Solving for p, Initial residual = 0.0016263, Final residual = 1.04353e-05, No Iterations 4
time step continuity errors : sum local = 3.82076e-06, global = -1.73423e-16, cumulative = -2.90085e-16
smoothSolver:  Solving for nuTilda, Initial residual = 0.00169935, Final residual = 7.97417e-06, No Iterations 8
ExecutionTime = 6.47 s  ClockTime = 7 s

forces wings output:
    sum of forces:
        pressure : (4.14589 19.5049 -4.05405e-19)
        viscous  : (0.330602 -0.0700294 5.364e-21)
        porous   : (0 0 0)
    sum of moments:
        pressure : (-0.975247 0.207295 0.533031)
        viscous  : (0.00350147 0.0165301 -7.03121e-05)
        porous   : (0 0 0)

Time = 71

smoothSolver:  Solving for Ux, Initial residual = 0.00227401, Final residual = 1.02718e-05, No Iterations 8
smoothSolver:  Solving for Uy, Initial residual = 0.00123243, Final residual = 7.42898e-06, No Iterations 8
GAMG:  Solving for p, Initial residual = 0.00160135, Final residual = 9.74679e-06, No Iterations 4
time step continuity errors : sum local = 3.56927e-06, global = 2.63178e-17, cumulative = -2.63768e-16
smoothSolver:  Solving for nuTilda, Initial residual = 0.00166036, Final residual = 7.78705e-06, No Iterations 8
ExecutionTime = 6.56 s  ClockTime = 7 s

Time = 72

smoothSolver:  Solving for Ux, Initial residual = 0.00225123, Final residual = 1.01743e-05, No Iterations 8
smoothSolver:  Solving for Uy, Initial residual = 0.00122505, Final residual = 7.39893e-06, No Iterations 8
GAMG:  Solving for p, Initial residual = 0.00157963, Final residual = 8.80333e-06, No Iterations 4
time step continuity errors : sum local = 3.2308e-06, global = -4.46527e-18, cumulative = -2.68233e-16
smoothSolver:  Solving for nuTilda, Initial residual = 0.001623, Final residual = 7.60666e-06, No Iterations 8
ExecutionTime = 6.64 s  ClockTime = 7 s

Time = 73

smoothSolver:  Solving for Ux, Initial residual = 0.00222948, Final residual = 1.00811e-05, No Iterations 8
smoothSolver:  Solving for Uy, Initial residual = 0.0012177, Final residual = 7.36764e-06, No Iterations 8
GAMG:  Solving for p, Initial residual = 0.00156232, Final residual = 8.75849e-06, No Iterations 4
time step continuity errors : sum local = 3.2246e-06, global = 1.19782e-16, cumulative = -1.48451e-16
smoothSolver:  Solving for nuTilda, Initial residual = 0.00158677, Final residual = 7.43305e-06, No Iterations 8
ExecutionTime = 6.73 s  ClockTime = 7 s

Time = 74

smoothSolver:  Solving for Ux, Initial residual = 0.00220783, Final residual = 9.9875e-06, No Iterations 8
smoothSolver:  Solving for Uy, Initial residual = 0.001211, Final residual = 7.3371e-06, No Iterations 8
GAMG:  Solving for p, Initial residual = 0.00154382, Final residual = 9.75908e-06, No Iterations 4
time step continuity errors : sum local = 3.59299e-06, global = 4.04438e-17, cumulative = -1.08007e-16
smoothSolver:  Solving for nuTilda, Initial residual = 0.00155116, Final residual = 7.26501e-06, No Iterations 8
ExecutionTime = 6.81 s  ClockTime = 7 s

Time = 75

smoothSolver:  Solving for Ux, Initial residual = 0.00218719, Final residual = 9.89727e-06, No Iterations 8
smoothSolver:  Solving for Uy, Initial residual = 0.00120382, Final residual = 7.30348e-06, No Iterations 8
GAMG:  Solving for p, Initial residual = 0.0015254, Final residual = 1.08522e-05, No Iterations 4
time step continuity errors : sum local = 3.96464e-06, global = 1.50049e-16, cumulative = 4.2042e-17
smoothSolver:  Solving for nuTilda, Initial residual = 0.00151676, Final residual = 7.10305e-06, No Iterations 8
ExecutionTime = 6.89 s  ClockTime = 7 s

forces wings output:
    sum of forces:
        pressure : (4.26057 20.0444 -4.08303e-19)
        viscous  : (0.319412 -0.0676681 5.52695e-21)
        porous   : (0 0 0)
    sum of moments:
        pressure : (-1.00222 0.213028 0.571904)
        viscous  : (0.0033834 0.0159706 -6.56437e-05)
        porous   : (0 0 0)

Time = 76

smoothSolver:  Solving for Ux, Initial residual = 0.00216711, Final residual = 9.80824e-06, No Iterations 8
smoothSolver:  Solving for Uy, Initial residual = 0.00119648, Final residual = 7.26827e-06, No Iterations 8
GAMG:  Solving for p, Initial residual = 0.00150731, Final residual = 9.77202e-06, No Iterations 4
time step continuity errors : sum local = 3.59645e-06, global = 1.51609e-16, cumulative = 1.9365e-16
smoothSolver:  Solving for nuTilda, Initial residual = 0.00148332, Final residual = 6.94556e-06, No Iterations 8
ExecutionTime = 6.98 s  ClockTime = 7 s

Time = 77

smoothSolver:  Solving for Ux, Initial residual = 0.00214691, Final residual = 9.71793e-06, No Iterations 8
smoothSolver:  Solving for Uy, Initial residual = 0.00118963, Final residual = 7.23502e-06, No Iterations 8
GAMG:  Solving for p, Initial residual = 0.00148826, Final residual = 9.78075e-06, No Iterations 4
time step continuity errors : sum local = 3.5978e-06, global = -1.86533e-16, cumulative = 7.11726e-18
smoothSolver:  Solving for nuTilda, Initial residual = 0.00145093, Final residual = 6.7925e-06, No Iterations 8
ExecutionTime = 7.06 s  ClockTime = 7 s

Time = 78

smoothSolver:  Solving for Ux, Initial residual = 0.00212747, Final residual = 9.63028e-06, No Iterations 8
smoothSolver:  Solving for Uy, Initial residual = 0.00118243, Final residual = 7.20013e-06, No Iterations 8
GAMG:  Solving for p, Initial residual = 0.0014732, Final residual = 1.08065e-05, No Iterations 4
time step continuity errors : sum local = 3.95693e-06, global = 2.13707e-16, cumulative = 2.20824e-16
smoothSolver:  Solving for nuTilda, Initial residual = 0.00141976, Final residual = 6.6454e-06, No Iterations 8
ExecutionTime = 7.15 s  ClockTime = 8 s

Time = 79

smoothSolver:  Solving for Ux, Initial residual = 0.00210882, Final residual = 9.54572e-06, No Iterations 8
smoothSolver:  Solving for Uy, Initial residual = 0.00117487, Final residual = 7.16305e-06, No Iterations 8
GAMG:  Solving for p, Initial residual = 0.00145707, Final residual = 9.20224e-06, No Iterations 4
time step continuity errors : sum local = 3.39151e-06, global = 5.95776e-18, cumulative = 2.26782e-16
smoothSolver:  Solving for nuTilda, Initial residual = 0.00138993, Final residual = 6.5035e-06, No Iterations 8
ExecutionTime = 7.23 s  ClockTime = 8 s

Time = 80

smoothSolver:  Solving for Ux, Initial residual = 0.00209002, Final residual = 9.45939e-06, No Iterations 8
smoothSolver:  Solving for Uy, Initial residual = 0.00116812, Final residual = 7.12738e-06, No Iterations 8
GAMG:  Solving for p, Initial residual = 0.00144284, Final residual = 1.04293e-05, No Iterations 4
time step continuity errors : sum local = 3.83304e-06, global = -1.17631e-17, cumulative = 2.15019e-16
smoothSolver:  Solving for nuTilda, Initial residual = 0.00136097, Final residual = 6.36527e-06, No Iterations 8
ExecutionTime = 7.32 s  ClockTime = 8 s

forces wings output:
    sum of forces:
        pressure : (4.3758 20.5866 -4.10587e-19)
        viscous  : (0.308663 -0.0654046 5.64336e-21)
        porous   : (0 0 0)
    sum of moments:
        pressure : (-1.02933 0.21879 0.609085)
        viscous  : (0.00327023 0.0154331 -6.02785e-05)
        porous   : (0 0 0)

Time = 81

smoothSolver:  Solving for Ux, Initial residual = 0.00207198, Final residual = 9.37659e-06, No Iterations 8
smoothSolver:  Solving for Uy, Initial residual = 0.00116075, Final residual = 7.08827e-06, No Iterations 8
GAMG:  Solving for p, Initial residual = 0.00142693, Final residual = 1.11783e-05, No Iterations 4
time step continuity errors : sum local = 4.10311e-06, global = 1.10167e-19, cumulative = 2.15129e-16
smoothSolver:  Solving for nuTilda, Initial residual = 0.00133294, Final residual = 6.23079e-06, No Iterations 8
ExecutionTime = 7.4 s  ClockTime = 8 s

Time = 82

smoothSolver:  Solving for Ux, Initial residual = 0.00205312, Final residual = 9.28824e-06, No Iterations 8
smoothSolver:  Solving for Uy, Initial residual = 0.00115445, Final residual = 7.05157e-06, No Iterations 8
GAMG:  Solving for p, Initial residual = 0.00141298, Final residual = 1.15577e-05, No Iterations 4
time step continuity errors : sum local = 4.24097e-06, global = 1.77424e-16, cumulative = 3.92553e-16
smoothSolver:  Solving for nuTilda, Initial residual = 0.00130599, Final residual = 6.10012e-06, No Iterations 8
ExecutionTime = 7.49 s  ClockTime = 8 s

Time = 83

smoothSolver:  Solving for Ux, Initial residual = 0.00203672, Final residual = 9.21352e-06, No Iterations 8
smoothSolver:  Solving for Uy, Initial residual = 0.00114585, Final residual = 7.00661e-06, No Iterations 8
GAMG:  Solving for p, Initial residual = 0.00139879, Final residual = 9.53778e-06, No Iterations 4
time step continuity errors : sum local = 3.51307e-06, global = 2.97583e-16, cumulative = 6.90136e-16
smoothSolver:  Solving for nuTilda, Initial residual = 0.0012798, Final residual = 5.9723e-06, No Iterations 8
ExecutionTime = 7.57 s  ClockTime = 8 s

Time = 84

smoothSolver:  Solving for Ux, Initial residual = 0.00201939, Final residual = 9.13349e-06, No Iterations 8
smoothSolver:  Solving for Uy, Initial residual = 0.00113868, Final residual = 6.96581e-06, No Iterations 8
GAMG:  Solving for p, Initial residual = 0.00138565, Final residual = 1.05484e-05, No Iterations 4
time step continuity errors : sum local = 3.88297e-06, global = 6.25834e-17, cumulative = 7.52719e-16
smoothSolver:  Solving for nuTilda, Initial residual = 0.00125442, Final residual = 5.84865e-06, No Iterations 8
ExecutionTime = 7.65 s  ClockTime = 8 s

Time = 85

smoothSolver:  Solving for Ux, Initial residual = 0.00200223, Final residual = 9.05347e-06, No Iterations 8
smoothSolver:  Solving for Uy, Initial residual = 0.00113137, Final residual = 6.92376e-06, No Iterations 8
GAMG:  Solving for p, Initial residual = 0.00136894, Final residual = 1.19886e-05, No Iterations 4
time step continuity errors : sum local = 4.40698e-06, global = 6.97098e-17, cumulative = 8.22429e-16
smoothSolver:  Solving for nuTilda, Initial residual = 0.00122972, Final residual = 5.7284e-06, No Iterations 8
ExecutionTime = 7.74 s  ClockTime = 8 s

forces wings output:
    sum of forces:
        pressure : (4.49145 21.1306 -4.11771e-19)
        viscous  : (0.298394 -0.0632423 5.80871e-21)
        porous   : (0 0 0)
    sum of moments:
        pressure : (-1.05653 0.224572 0.644325)
        viscous  : (0.00316211 0.0149197 -5.5155e-05)
        porous   : (0 0 0)

Time = 86

smoothSolver:  Solving for Ux, Initial residual = 0.0019844, Final residual = 8.96709e-06, No Iterations 8
smoothSolver:  Solving for Uy, Initial residual = 0.00112517, Final residual = 6.8845e-06, No Iterations 8
GAMG:  Solving for p, Initial residual = 0.00135417, Final residual = 1.19521e-05, No Iterations 4
time step continuity errors : sum local = 4.37744e-06, global = -1.4871e-17, cumulative = 8.07558e-16
smoothSolver:  Solving for nuTilda, Initial residual = 0.00120552, Final residual = 5.61048e-06, No Iterations 8
ExecutionTime = 7.82 s  ClockTime = 8 s

Time = 87

smoothSolver:  Solving for Ux, Initial residual = 0.00196934, Final residual = 8.89655e-06, No Iterations 8
smoothSolver:  Solving for Uy, Initial residual = 0.00111641, Final residual = 6.8362e-06, No Iterations 8
GAMG:  Solving for p, Initial residual = 0.00133959, Final residual = 1.04496e-05, No Iterations 4
time step continuity errors : sum local = 3.85456e-06, global = -9.48648e-17, cumulative = 7.12693e-16
smoothSolver:  Solving for nuTilda, Initial residual = 0.00118209, Final residual = 5.49557e-06, No Iterations 8
ExecutionTime = 7.91 s  ClockTime = 8 s

Time = 88

smoothSolver:  Solving for Ux, Initial residual = 0.00195387, Final residual = 8.82262e-06, No Iterations 8
smoothSolver:  Solving for Uy, Initial residual = 0.0011088, Final residual = 6.79076e-06, No Iterations 8
GAMG:  Solving for p, Initial residual = 0.00132752, Final residual = 1.20028e-05, No Iterations 4
time step continuity errors : sum local = 4.40071e-06, global = -1.65487e-16, cumulative = 5.47207e-16
smoothSolver:  Solving for nuTilda, Initial residual = 0.00115959, Final residual = 5.3826e-06, No Iterations 8
ExecutionTime = 7.99 s  ClockTime = 8 s

Time = 89

smoothSolver:  Solving for Ux, Initial residual = 0.00193849, Final residual = 8.74782e-06, No Iterations 8
smoothSolver:  Solving for Uy, Initial residual = 0.00110121, Final residual = 6.74434e-06, No Iterations 8
GAMG:  Solving for p, Initial residual = 0.00131069, Final residual = 1.0928e-05, No Iterations 4
time step continuity errors : sum local = 4.02456e-06, global = -4.93962e-17, cumulative = 4.9781e-16
smoothSolver:  Solving for nuTilda, Initial residual = 0.00113715, Final residual = 5.27362e-06, No Iterations 8
ExecutionTime = 8.07 s  ClockTime = 8 s

Time = 90

smoothSolver:  Solving for Ux, Initial residual = 0.00192272, Final residual = 8.67053e-06, No Iterations 8
smoothSolver:  Solving for Uy, Initial residual = 0.00109411, Final residual = 6.69877e-06, No Iterations 8
GAMG:  Solving for p, Initial residual = 0.00129623, Final residual = 1.18956e-05, No Iterations 4
time step continuity errors : sum local = 4.35726e-06, global = 8.89038e-18, cumulative = 5.06701e-16
smoothSolver:  Solving for nuTilda, Initial residual = 0.00111519, Final residual = 5.16848e-06, No Iterations 8
ExecutionTime = 8.16 s  ClockTime = 9 s

forces wings output:
    sum of forces:
        pressure : (4.61845 21.7281 -4.12501e-19)
        viscous  : (0.288839 -0.0612315 5.79667e-21)
        porous   : (0 0 0)
    sum of moments:
        pressure : (-1.08641 0.230922 0.68447)
        viscous  : (0.00306157 0.014442 -5.0289e-05)
        porous   : (0 0 0)

Time = 91

smoothSolver:  Solving for Ux, Initial residual = 0.00190766, Final residual = 8.59662e-06, No Iterations 8
smoothSolver:  Solving for Uy, Initial residual = 0.00108639, Final residual = 6.65049e-06, No Iterations 8
GAMG:  Solving for p, Initial residual = 0.00127958, Final residual = 1.12203e-05, No Iterations 4
time step continuity errors : sum local = 4.13261e-06, global = -2.32329e-17, cumulative = 4.83468e-16
smoothSolver:  Solving for nuTilda, Initial residual = 0.00109401, Final residual = 5.06666e-06, No Iterations 8
ExecutionTime = 8.24 s  ClockTime = 9 s

Time = 92

smoothSolver:  Solving for Ux, Initial residual = 0.00189301, Final residual = 8.52495e-06, No Iterations 8
smoothSolver:  Solving for Uy, Initial residual = 0.00107859, Final residual = 6.60135e-06, No Iterations 8
GAMG:  Solving for p, Initial residual = 0.00126712, Final residual = 1.23227e-05, No Iterations 4
time step continuity errors : sum local = 4.52047e-06, global = -1.89468e-16, cumulative = 2.94e-16
smoothSolver:  Solving for nuTilda, Initial residual = 0.00107354, Final residual = 4.96813e-06, No Iterations 8
ExecutionTime = 8.32 s  ClockTime = 9 s

Time = 93

smoothSolver:  Solving for Ux, Initial residual = 0.00187913, Final residual = 8.45607e-06, No Iterations 8
smoothSolver:  Solving for Uy, Initial residual = 0.00107039, Final residual = 6.55021e-06, No Iterations 8
GAMG:  Solving for p, Initial residual = 0.00125192, Final residual = 1.10711e-05, No Iterations 4
time step continuity errors : sum local = 4.08591e-06, global = -1.38951e-16, cumulative = 1.55048e-16
smoothSolver:  Solving for nuTilda, Initial residual = 0.00105347, Final residual = 4.87181e-06, No Iterations 8
ExecutionTime = 8.41 s  ClockTime = 9 s

Time = 94

smoothSolver:  Solving for Ux, Initial residual = 0.00186497, Final residual = 8.38568e-06, No Iterations 8
smoothSolver:  Solving for Uy, Initial residual = 0.00106275, Final residual = 6.50033e-06, No Iterations 8
GAMG:  Solving for p, Initial residual = 0.00124047, Final residual = 4.33211e-06, No Iterations 5
time step continuity errors : sum local = 1.5944e-06, global = 2.1894e-16, cumulative = 3.73989e-16
smoothSolver:  Solving for nuTilda, Initial residual = 0.00103393, Final residual = 4.778e-06, No Iterations 8
ExecutionTime = 8.49 s  ClockTime = 9 s

Time = 95

smoothSolver:  Solving for Ux, Initial residual = 0.00185148, Final residual = 8.31897e-06, No Iterations 8
smoothSolver:  Solving for Uy, Initial residual = 0.00105448, Final residual = 6.44785e-06, No Iterations 8
GAMG:  Solving for p, Initial residual = 0.00122719, Final residual = 4.35098e-06, No Iterations 5
time step continuity errors : sum local = 1.60587e-06, global = -1.90373e-16, cumulative = 1.83616e-16
smoothSolver:  Solving for nuTilda, Initial residual = 0.0010148, Final residual = 4.68577e-06, No Iterations 8
ExecutionTime = 8.58 s  ClockTime = 9 s

forces wings output:
    sum of forces:
        pressure : (4.74537 22.3253 -4.14679e-19)
        viscous  : (0.280236 -0.0594197 5.85813e-21)
        porous   : (0 0 0)
    sum of moments:
        pressure : (-1.11626 0.237268 0.72239)
        viscous  : (0.00297098 0.0140118 -4.61618e-05)
        porous   : (0 0 0)

Time = 96

smoothSolver:  Solving for Ux, Initial residual = 0.0018379, Final residual = 8.25082e-06, No Iterations 8
smoothSolver:  Solving for Uy, Initial residual = 0.00104654, Final residual = 6.396e-06, No Iterations 8
GAMG:  Solving for p, Initial residual = 0.00121659, Final residual = 4.43184e-06, No Iterations 5
time step continuity errors : sum local = 1.63786e-06, global = 1.39635e-16, cumulative = 3.2325e-16
smoothSolver:  Solving for nuTilda, Initial residual = 0.000995981, Final residual = 4.59545e-06, No Iterations 8
ExecutionTime = 8.67 s  ClockTime = 9 s

Time = 97

smoothSolver:  Solving for Ux, Initial residual = 0.00182439, Final residual = 8.1821e-06, No Iterations 8
smoothSolver:  Solving for Uy, Initial residual = 0.00103884, Final residual = 6.34462e-06, No Iterations 8
GAMG:  Solving for p, Initial residual = 0.00120423, Final residual = 4.42428e-06, No Iterations 5
time step continuity errors : sum local = 1.63516e-06, global = -3.49855e-16, cumulative = -2.66044e-17
smoothSolver:  Solving for nuTilda, Initial residual = 0.000977485, Final residual = 4.50778e-06, No Iterations 8
ExecutionTime = 8.77 s  ClockTime = 9 s

Time = 98

smoothSolver:  Solving for Ux, Initial residual = 0.00181114, Final residual = 8.11467e-06, No Iterations 8
smoothSolver:  Solving for Uy, Initial residual = 0.00103103, Final residual = 6.29246e-06, No Iterations 8
GAMG:  Solving for p, Initial residual = 0.00119368, Final residual = 4.20641e-06, No Iterations 5
time step continuity errors : sum local = 1.55232e-06, global = 1.33841e-16, cumulative = 1.07237e-16
smoothSolver:  Solving for nuTilda, Initial residual = 0.000959376, Final residual = 4.42238e-06, No Iterations 8
ExecutionTime = 8.85 s  ClockTime = 9 s

Time = 99

smoothSolver:  Solving for Ux, Initial residual = 0.00179833, Final residual = 8.04973e-06, No Iterations 8
smoothSolver:  Solving for Uy, Initial residual = 0.00102287, Final residual = 6.23873e-06, No Iterations 8
GAMG:  Solving for p, Initial residual = 0.00118214, Final residual = 4.01073e-06, No Iterations 5
time step continuity errors : sum local = 1.476e-06, global = -2.56886e-16, cumulative = -1.49649e-16
smoothSolver:  Solving for nuTilda, Initial residual = 0.000941734, Final residual = 4.33881e-06, No Iterations 8
ExecutionTime = 8.94 s  ClockTime = 9 s

Time = 100

smoothSolver:  Solving for Ux, Initial residual = 0.00178596, Final residual = 7.98691e-06, No Iterations 8
smoothSolver:  Solving for Uy, Initial residual = 0.00101435, Final residual = 6.18306e-06, No Iterations 8
GAMG:  Solving for p, Initial residual = 0.00117314, Final residual = 1.07097e-05, No Iterations 4
time step continuity errors : sum local = 3.95653e-06, global = -1.95216e-16, cumulative = -3.44865e-16
smoothSolver:  Solving for nuTilda, Initial residual = 0.000924599, Final residual = 4.25739e-06, No Iterations 8
ExecutionTime = 9.02 s  ClockTime = 9 s

forces wings output:
    sum of forces:
        pressure : (4.86686 22.8968 -4.17091e-19)
        viscous  : (0.272257 -0.0577407 5.89706e-21)
        porous   : (0 0 0)
    sum of moments:
        pressure : (-1.14484 0.243343 0.754742)
        viscous  : (0.00288704 0.0136128 -4.22262e-05)
        porous   : (0 0 0)

Time = 101

smoothSolver:  Solving for Ux, Initial residual = 0.00177348, Final residual = 7.92333e-06, No Iterations 8
smoothSolver:  Solving for Uy, Initial residual = 0.00100595, Final residual = 6.12739e-06, No Iterations 8
GAMG:  Solving for p, Initial residual = 0.00116229, Final residual = 3.90121e-06, No Iterations 5
time step continuity errors : sum local = 1.43762e-06, global = -7.48861e-17, cumulative = -4.19751e-16
smoothSolver:  Solving for nuTilda, Initial residual = 0.000907804, Final residual = 4.17807e-06, No Iterations 8
ExecutionTime = 9.11 s  ClockTime = 9 s

Time = 102

smoothSolver:  Solving for Ux, Initial residual = 0.00176157, Final residual = 7.8633e-06, No Iterations 8
smoothSolver:  Solving for Uy, Initial residual = 0.000996949, Final residual = 6.06922e-06, No Iterations 8
GAMG:  Solving for p, Initial residual = 0.00115384, Final residual = 3.89315e-06, No Iterations 5
time step continuity errors : sum local = 1.43549e-06, global = -2.34076e-16, cumulative = -6.53827e-16
smoothSolver:  Solving for nuTilda, Initial residual = 0.000891654, Final residual = 4.10038e-06, No Iterations 8
ExecutionTime = 9.2 s  ClockTime = 10 s

Time = 103

smoothSolver:  Solving for Ux, Initial residual = 0.00174948, Final residual = 7.80171e-06, No Iterations 8
smoothSolver:  Solving for Uy, Initial residual = 0.000988381, Final residual = 6.01229e-06, No Iterations 8
GAMG:  Solving for p, Initial residual = 0.00114341, Final residual = 3.9089e-06, No Iterations 5
time step continuity errors : sum local = 1.44064e-06, global = 3.73321e-17, cumulative = -6.16495e-16
smoothSolver:  Solving for nuTilda, Initial residual = 0.000875657, Final residual = 4.02481e-06, No Iterations 8
ExecutionTime = 9.29 s  ClockTime = 10 s

Time = 104

smoothSolver:  Solving for Ux, Initial residual = 0.00173721, Final residual = 7.73903e-06, No Iterations 8
smoothSolver:  Solving for Uy, Initial residual = 0.00098019, Final residual = 5.95643e-06, No Iterations 8
GAMG:  Solving for p, Initial residual = 0.001135, Final residual = 3.94191e-06, No Iterations 5
time step continuity errors : sum local = 1.45086e-06, global = 1.05267e-16, cumulative = -5.11228e-16
smoothSolver:  Solving for nuTilda, Initial residual = 0.000860004, Final residual = 3.95101e-06, No Iterations 8
ExecutionTime = 9.37 s  ClockTime = 10 s

Time = 105

smoothSolver:  Solving for Ux, Initial residual = 0.00172504, Final residual = 7.677e-06, No Iterations 8
smoothSolver:  Solving for Uy, Initial residual = 0.000972028, Final residual = 5.90047e-06, No Iterations 8
GAMG:  Solving for p, Initial residual = 0.00112566, Final residual = 1.07598e-05, No Iterations 4
time step continuity errors : sum local = 3.98128e-06, global = 3.22395e-17, cumulative = -4.78988e-16
smoothSolver:  Solving for nuTilda, Initial residual = 0.000844687, Final residual = 3.879e-06, No Iterations 8
ExecutionTime = 9.46 s  ClockTime = 10 s

forces wings output:
    sum of forces:
        pressure : (4.98701 23.4621 -4.19987e-19)
        viscous  : (0.264703 -0.0561446 6.01918e-21)
        porous   : (0 0 0)
    sum of moments:
        pressure : (-1.1731 0.24935 0.784623)
        viscous  : (0.00280723 0.0132351 -4.00709e-05)
        porous   : (0 0 0)

Time = 106

smoothSolver:  Solving for Ux, Initial residual = 0.0017129, Final residual = 7.6153e-06, No Iterations 8
smoothSolver:  Solving for Uy, Initial residual = 0.000963826, Final residual = 5.84417e-06, No Iterations 8
GAMG:  Solving for p, Initial residual = 0.00111786, Final residual = 4.0969e-06, No Iterations 5
time step continuity errors : sum local = 1.50992e-06, global = 1.42249e-16, cumulative = -3.3674e-16
smoothSolver:  Solving for nuTilda, Initial residual = 0.000829724, Final residual = 3.80835e-06, No Iterations 8
ExecutionTime = 9.55 s  ClockTime = 10 s

Time = 107

smoothSolver:  Solving for Ux, Initial residual = 0.00170165, Final residual = 7.55884e-06, No Iterations 8
smoothSolver:  Solving for Uy, Initial residual = 0.0009546, Final residual = 5.78412e-06, No Iterations 8
GAMG:  Solving for p, Initial residual = 0.00110932, Final residual = 4.07385e-06, No Iterations 5
time step continuity errors : sum local = 1.50101e-06, global = -6.10483e-17, cumulative = -3.97788e-16
smoothSolver:  Solving for nuTilda, Initial residual = 0.000815089, Final residual = 3.73915e-06, No Iterations 8
ExecutionTime = 9.64 s  ClockTime = 10 s

Time = 108

smoothSolver:  Solving for Ux, Initial residual = 0.00169028, Final residual = 7.50144e-06, No Iterations 8
smoothSolver:  Solving for Uy, Initial residual = 0.000945578, Final residual = 5.72455e-06, No Iterations 8
GAMG:  Solving for p, Initial residual = 0.00110107, Final residual = 4.20164e-06, No Iterations 5
time step continuity errors : sum local = 1.54833e-06, global = -3.68648e-17, cumulative = -4.34653e-16
smoothSolver:  Solving for nuTilda, Initial residual = 0.000800827, Final residual = 3.6715e-06, No Iterations 8
ExecutionTime = 9.72 s  ClockTime = 10 s

Time = 109

smoothSolver:  Solving for Ux, Initial residual = 0.00167845, Final residual = 7.44145e-06, No Iterations 8
smoothSolver:  Solving for Uy, Initial residual = 0.000937168, Final residual = 5.66696e-06, No Iterations 8
GAMG:  Solving for p, Initial residual = 0.00109126, Final residual = 1.05054e-05, No Iterations 4
time step continuity errors : sum local = 3.89638e-06, global = -1.45486e-16, cumulative = -5.80139e-16
smoothSolver:  Solving for nuTilda, Initial residual = 0.000786888, Final residual = 3.60506e-06, No Iterations 8
ExecutionTime = 9.8 s  ClockTime = 10 s

Time = 110

smoothSolver:  Solving for Ux, Initial residual = 0.00166645, Final residual = 7.38057e-06, No Iterations 8
smoothSolver:  Solving for Uy, Initial residual = 0.000929055, Final residual = 5.61028e-06, No Iterations 8
GAMG:  Solving for p, Initial residual = 0.00108238, Final residual = 4.32875e-06, No Iterations 5
time step continuity errors : sum local = 1.59588e-06, global = 2.17091e-16, cumulative = -3.63048e-16
smoothSolver:  Solving for nuTilda, Initial residual = 0.000773292, Final residual = 3.5398e-06, No Iterations 8
ExecutionTime = 9.89 s  ClockTime = 10 s

forces wings output:
    sum of forces:
        pressure : (5.10644 24.024 -4.23217e-19)
        viscous  : (0.25754 -0.0546257 6.13064e-21)
        porous   : (0 0 0)
    sum of moments:
        pressure : (-1.2012 0.255322 0.814246)
        viscous  : (0.00273128 0.012877 -3.94906e-05)
        porous   : (0 0 0)

Time = 111

smoothSolver:  Solving for Ux, Initial residual = 0.00165525, Final residual = 7.32493e-06, No Iterations 8
smoothSolver:  Solving for Uy, Initial residual = 0.000919988, Final residual = 5.55044e-06, No Iterations 8
GAMG:  Solving for p, Initial residual = 0.00107283, Final residual = 4.606e-06, No Iterations 5
time step continuity errors : sum local = 1.70067e-06, global = 7.32375e-17, cumulative = -2.8981e-16
smoothSolver:  Solving for nuTilda, Initial residual = 0.000760005, Final residual = 3.47573e-06, No Iterations 8
ExecutionTime = 9.98 s  ClockTime = 10 s

Time = 112

smoothSolver:  Solving for Ux, Initial residual = 0.00164412, Final residual = 7.2694e-06, No Iterations 8
smoothSolver:  Solving for Uy, Initial residual = 0.000910941, Final residual = 5.49058e-06, No Iterations 8
GAMG:  Solving for p, Initial residual = 0.00106437, Final residual = 1.03234e-05, No Iterations 4
time step continuity errors : sum local = 3.83608e-06, global = 2.30082e-16, cumulative = -5.97281e-17
smoothSolver:  Solving for nuTilda, Initial residual = 0.000746967, Final residual = 3.41285e-06, No Iterations 8
ExecutionTime = 10.06 s  ClockTime = 10 s

Time = 113

smoothSolver:  Solving for Ux, Initial residual = 0.00163273, Final residual = 7.21207e-06, No Iterations 8
smoothSolver:  Solving for Uy, Initial residual = 0.000902222, Final residual = 5.43157e-06, No Iterations 8
GAMG:  Solving for p, Initial residual = 0.00105392, Final residual = 4.48068e-06, No Iterations 5
time step continuity errors : sum local = 1.65453e-06, global = 7.07362e-17, cumulative = 1.10081e-17
smoothSolver:  Solving for nuTilda, Initial residual = 0.00073419, Final residual = 3.35112e-06, No Iterations 8
ExecutionTime = 10.15 s  ClockTime = 11 s

Time = 114

smoothSolver:  Solving for Ux, Initial residual = 0.00162171, Final residual = 7.15751e-06, No Iterations 8
smoothSolver:  Solving for Uy, Initial residual = 0.000892946, Final residual = 5.37075e-06, No Iterations 8
GAMG:  Solving for p, Initial residual = 0.00104489, Final residual = 1.02712e-05, No Iterations 4
time step continuity errors : sum local = 3.82031e-06, global = -3.34859e-16, cumulative = -3.23851e-16
smoothSolver:  Solving for nuTilda, Initial residual = 0.000721651, Final residual = 3.2906e-06, No Iterations 8
ExecutionTime = 10.23 s  ClockTime = 11 s

Time = 115

smoothSolver:  Solving for Ux, Initial residual = 0.0016104, Final residual = 7.10106e-06, No Iterations 8
smoothSolver:  Solving for Uy, Initial residual = 0.000884205, Final residual = 5.31181e-06, No Iterations 8
GAMG:  Solving for p, Initial residual = 0.00103418, Final residual = 4.16868e-06, No Iterations 5
time step continuity errors : sum local = 1.53875e-06, global = 1.62266e-16, cumulative = -1.61586e-16
smoothSolver:  Solving for nuTilda, Initial residual = 0.000709334, Final residual = 3.23131e-06, No Iterations 8
ExecutionTime = 10.33 s  ClockTime = 11 s

forces wings output:
    sum of forces:
        pressure : (5.2219 24.5671 -4.27704e-19)
        viscous  : (0.250828 -0.0531966 6.33059e-21)
        porous   : (0 0 0)
    sum of moments:
        pressure : (-1.22836 0.261095 0.840618)
        viscous  : (0.00265983 0.0125414 -4.03837e-05)
        porous   : (0 0 0)

Time = 116

smoothSolver:  Solving for Ux, Initial residual = 0.00159938, Final residual = 7.04667e-06, No Iterations 8
smoothSolver:  Solving for Uy, Initial residual = 0.000875071, Final residual = 5.25173e-06, No Iterations 8
GAMG:  Solving for p, Initial residual = 0.00102464, Final residual = 9.94462e-06, No Iterations 4
time step continuity errors : sum local = 3.70062e-06, global = 1.70618e-18, cumulative = -1.5988e-16
smoothSolver:  Solving for nuTilda, Initial residual = 0.00069723, Final residual = 3.1733e-06, No Iterations 8
ExecutionTime = 10.42 s  ClockTime = 11 s

Time = 117

smoothSolver:  Solving for Ux, Initial residual = 0.00158806, Final residual = 6.98997e-06, No Iterations 8
smoothSolver:  Solving for Uy, Initial residual = 0.000866468, Final residual = 5.19355e-06, No Iterations 8
GAMG:  Solving for p, Initial residual = 0.00101361, Final residual = 1.01085e-05, No Iterations 4
time step continuity errors : sum local = 3.76012e-06, global = 1.86349e-16, cumulative = 2.64694e-17
smoothSolver:  Solving for nuTilda, Initial residual = 0.000685325, Final residual = 3.11643e-06, No Iterations 8
ExecutionTime = 10.5 s  ClockTime = 11 s

Time = 118

smoothSolver:  Solving for Ux, Initial residual = 0.00157701, Final residual = 6.93524e-06, No Iterations 8
smoothSolver:  Solving for Uy, Initial residual = 0.000857457, Final residual = 5.13405e-06, No Iterations 8
GAMG:  Solving for p, Initial residual = 0.00100407, Final residual = 3.91033e-06, No Iterations 5
time step continuity errors : sum local = 1.44446e-06, global = -3.55703e-17, cumulative = -9.10094e-18
smoothSolver:  Solving for nuTilda, Initial residual = 0.000673694, Final residual = 3.06021e-06, No Iterations 8
ExecutionTime = 10.59 s  ClockTime = 11 s

Time = 119

smoothSolver:  Solving for Ux, Initial residual = 0.00156621, Final residual = 6.8825e-06, No Iterations 8
smoothSolver:  Solving for Uy, Initial residual = 0.000848061, Final residual = 5.07332e-06, No Iterations 8
GAMG:  Solving for p, Initial residual = 0.000993436, Final residual = 9.36118e-06, No Iterations 4
time step continuity errors : sum local = 3.4885e-06, global = -8.74449e-17, cumulative = -9.65458e-17
smoothSolver:  Solving for nuTilda, Initial residual = 0.000662173, Final residual = 3.0051e-06, No Iterations 8
ExecutionTime = 10.67 s  ClockTime = 11 s

Time = 120

smoothSolver:  Solving for Ux, Initial residual = 0.00155506, Final residual = 6.82719e-06, No Iterations 8
smoothSolver:  Solving for Uy, Initial residual = 0.000839366, Final residual = 5.01506e-06, No Iterations 8
GAMG:  Solving for p, Initial residual = 0.00098334, Final residual = 9.38578e-06, No Iterations 4
time step continuity errors : sum local = 3.49914e-06, global = 7.57175e-18, cumulative = -8.89741e-17
smoothSolver:  Solving for nuTilda, Initial residual = 0.000650869, Final residual = 2.95115e-06, No Iterations 8
ExecutionTime = 10.75 s  ClockTime = 11 s

forces wings output:
    sum of forces:
[...]

forces wings output:
    sum of forces:
        pressure : (5.03155 23.6716 -4.22901e-20)
        viscous  : (0.0733089 -0.0154498 -2.41685e-21)
        porous   : (0 0 0)
    sum of moments:
        pressure : (-1.18358 0.251577 2.90489)
        viscous  : (0.000772489 0.00366545 -6.88459e-05)
        porous   : (0 0 0)

Time = 4971

smoothSolver:  Solving for Ux, Initial residual = 2.0807e-06, Final residual = 1.12386e-08, No Iterations 8
smoothSolver:  Solving for Uy, Initial residual = 1.1256e-05, Final residual = 6.36587e-08, No Iterations 8
GAMG:  Solving for p, Initial residual = 7.76393e-06, Final residual = 5.38185e-07, No Iterations 2
time step continuity errors : sum local = 2.08132e-07, global = -8.79423e-17, cumulative = 2.42142e-14
smoothSolver:  Solving for nuTilda, Initial residual = 8.65113e-07, Final residual = 4.22094e-09, No Iterations 8
ExecutionTime = 431.04 s  ClockTime = 433 s

Time = 4972

smoothSolver:  Solving for Ux, Initial residual = 2.07746e-06, Final residual = 1.12223e-08, No Iterations 8
smoothSolver:  Solving for Uy, Initial residual = 1.12236e-05, Final residual = 6.34671e-08, No Iterations 8
GAMG:  Solving for p, Initial residual = 7.74282e-06, Final residual = 5.35199e-07, No Iterations 2
time step continuity errors : sum local = 2.0699e-07, global = 1.65408e-16, cumulative = 2.43796e-14
smoothSolver:  Solving for nuTilda, Initial residual = 8.63566e-07, Final residual = 4.21766e-09, No Iterations 8
ExecutionTime = 431.12 s  ClockTime = 433 s

Time = 4973

smoothSolver:  Solving for Ux, Initial residual = 2.07421e-06, Final residual = 1.1205e-08, No Iterations 8
smoothSolver:  Solving for Uy, Initial residual = 1.11913e-05, Final residual = 6.32739e-08, No Iterations 8
GAMG:  Solving for p, Initial residual = 7.71693e-06, Final residual = 5.31644e-07, No Iterations 2
time step continuity errors : sum local = 2.05636e-07, global = 7.35214e-17, cumulative = 2.44531e-14
smoothSolver:  Solving for nuTilda, Initial residual = 8.6265e-07, Final residual = 4.21447e-09, No Iterations 8
ExecutionTime = 431.2 s  ClockTime = 433 s

Time = 4974

smoothSolver:  Solving for Ux, Initial residual = 2.07086e-06, Final residual = 1.11887e-08, No Iterations 8
smoothSolver:  Solving for Uy, Initial residual = 1.11595e-05, Final residual = 6.30868e-08, No Iterations 8
GAMG:  Solving for p, Initial residual = 7.6893e-06, Final residual = 5.28792e-07, No Iterations 2
time step continuity errors : sum local = 2.0455e-07, global = -5.63369e-17, cumulative = 2.43968e-14
smoothSolver:  Solving for nuTilda, Initial residual = 8.61103e-07, Final residual = 4.21127e-09, No Iterations 8
ExecutionTime = 431.28 s  ClockTime = 433 s

Time = 4975

smoothSolver:  Solving for Ux, Initial residual = 2.06751e-06, Final residual = 1.11712e-08, No Iterations 8
smoothSolver:  Solving for Uy, Initial residual = 1.11284e-05, Final residual = 6.29023e-08, No Iterations 8
GAMG:  Solving for p, Initial residual = 7.66198e-06, Final residual = 5.26851e-07, No Iterations 2
time step continuity errors : sum local = 2.03809e-07, global = -4.34496e-18, cumulative = 2.43924e-14
smoothSolver:  Solving for nuTilda, Initial residual = 8.60178e-07, Final residual = 4.20823e-09, No Iterations 8
ExecutionTime = 431.36 s  ClockTime = 433 s

forces wings output:
    sum of forces:
        pressure : (5.03225 23.6749 -4.22686e-20)
        viscous  : (0.0732947 -0.0154468 -2.41819e-21)
        porous   : (0 0 0)
    sum of moments:
        pressure : (-1.18374 0.251612 2.90529)
        viscous  : (0.000772338 0.00366473 -6.8854e-05)
        porous   : (0 0 0)

Time = 4976

smoothSolver:  Solving for Ux, Initial residual = 2.06413e-06, Final residual = 1.11544e-08, No Iterations 8
smoothSolver:  Solving for Uy, Initial residual = 1.10981e-05, Final residual = 6.27259e-08, No Iterations 8
GAMG:  Solving for p, Initial residual = 7.63798e-06, Final residual = 5.26053e-07, No Iterations 2
time step continuity errors : sum local = 2.03499e-07, global = 4.18525e-16, cumulative = 2.4811e-14
smoothSolver:  Solving for nuTilda, Initial residual = 8.58628e-07, Final residual = 4.20509e-09, No Iterations 8
ExecutionTime = 431.45 s  ClockTime = 433 s

Time = 4977

smoothSolver:  Solving for Ux, Initial residual = 2.06078e-06, Final residual = 1.11365e-08, No Iterations 8
smoothSolver:  Solving for Uy, Initial residual = 1.10681e-05, Final residual = 6.25495e-08, No Iterations 8
GAMG:  Solving for p, Initial residual = 7.61645e-06, Final residual = 5.25712e-07, No Iterations 2
time step continuity errors : sum local = 2.03359e-07, global = -2.88527e-17, cumulative = 2.47821e-14
smoothSolver:  Solving for nuTilda, Initial residual = 8.57709e-07, Final residual = 4.20205e-09, No Iterations 8
ExecutionTime = 431.53 s  ClockTime = 433 s

Time = 4978

smoothSolver:  Solving for Ux, Initial residual = 2.05743e-06, Final residual = 1.11194e-08, No Iterations 8
smoothSolver:  Solving for Uy, Initial residual = 1.10384e-05, Final residual = 6.23748e-08, No Iterations 8
GAMG:  Solving for p, Initial residual = 7.59729e-06, Final residual = 5.25637e-07, No Iterations 2
time step continuity errors : sum local = 2.03317e-07, global = -7.4693e-17, cumulative = 2.47074e-14
smoothSolver:  Solving for nuTilda, Initial residual = 8.56161e-07, Final residual = 4.19892e-09, No Iterations 8
ExecutionTime = 431.61 s  ClockTime = 433 s

Time = 4979

smoothSolver:  Solving for Ux, Initial residual = 2.05416e-06, Final residual = 1.11015e-08, No Iterations 8
smoothSolver:  Solving for Uy, Initial residual = 1.10083e-05, Final residual = 6.21943e-08, No Iterations 8
GAMG:  Solving for p, Initial residual = 7.57822e-06, Final residual = 5.25058e-07, No Iterations 2
time step continuity errors : sum local = 2.03082e-07, global = -9.0411e-17, cumulative = 2.4617e-14
smoothSolver:  Solving for nuTilda, Initial residual = 8.55251e-07, Final residual = 4.19592e-09, No Iterations 8
ExecutionTime = 431.69 s  ClockTime = 433 s

Time = 4980

smoothSolver:  Solving for Ux, Initial residual = 2.05087e-06, Final residual = 1.10847e-08, No Iterations 8
smoothSolver:  Solving for Uy, Initial residual = 1.09778e-05, Final residual = 6.20121e-08, No Iterations 8
GAMG:  Solving for p, Initial residual = 7.55863e-06, Final residual = 5.23933e-07, No Iterations 2
time step continuity errors : sum local = 2.0264e-07, global = -2.96012e-17, cumulative = 2.45874e-14
smoothSolver:  Solving for nuTilda, Initial residual = 8.53712e-07, Final residual = 4.19289e-09, No Iterations 8
ExecutionTime = 431.77 s  ClockTime = 433 s

forces wings output:
    sum of forces:
        pressure : (5.03293 23.6781 -4.22476e-20)
        viscous  : (0.0732801 -0.0154437 -2.41943e-21)
        porous   : (0 0 0)
    sum of moments:
        pressure : (-1.18391 0.251647 2.9057)
        viscous  : (0.000772183 0.003664 -6.88522e-05)
        porous   : (0 0 0)

Time = 4981

smoothSolver:  Solving for Ux, Initial residual = 2.04765e-06, Final residual = 1.10673e-08, No Iterations 8
smoothSolver:  Solving for Uy, Initial residual = 1.09465e-05, Final residual = 6.18243e-08, No Iterations 8
GAMG:  Solving for p, Initial residual = 7.53706e-06, Final residual = 5.21989e-07, No Iterations 2
time step continuity errors : sum local = 2.0189e-07, global = 4.79806e-17, cumulative = 2.46354e-14
smoothSolver:  Solving for nuTilda, Initial residual = 8.52804e-07, Final residual = 4.18997e-09, No Iterations 8
ExecutionTime = 431.86 s  ClockTime = 433 s

Time = 4982

smoothSolver:  Solving for Ux, Initial residual = 2.04442e-06, Final residual = 1.10513e-08, No Iterations 8
smoothSolver:  Solving for Uy, Initial residual = 1.0915e-05, Final residual = 6.16369e-08, No Iterations 8
GAMG:  Solving for p, Initial residual = 7.51411e-06, Final residual = 5.19761e-07, No Iterations 2
time step continuity errors : sum local = 2.01037e-07, global = 1.19769e-16, cumulative = 2.47551e-14
smoothSolver:  Solving for nuTilda, Initial residual = 8.51281e-07, Final residual = 4.18704e-09, No Iterations 8
ExecutionTime = 431.94 s  ClockTime = 433 s

Time = 4983

smoothSolver:  Solving for Ux, Initial residual = 2.04126e-06, Final residual = 1.10346e-08, No Iterations 8
smoothSolver:  Solving for Uy, Initial residual = 1.08831e-05, Final residual = 6.14477e-08, No Iterations 8
GAMG:  Solving for p, Initial residual = 7.48955e-06, Final residual = 5.17367e-07, No Iterations 2
time step continuity errors : sum local = 2.00122e-07, global = 9.16705e-17, cumulative = 2.48468e-14
smoothSolver:  Solving for nuTilda, Initial residual = 8.50384e-07, Final residual = 4.18427e-09, No Iterations 8
ExecutionTime = 432.02 s  ClockTime = 434 s

Time = 4984

smoothSolver:  Solving for Ux, Initial residual = 2.03807e-06, Final residual = 1.10191e-08, No Iterations 8
smoothSolver:  Solving for Uy, Initial residual = 1.08513e-05, Final residual = 6.12618e-08, No Iterations 8
GAMG:  Solving for p, Initial residual = 7.46484e-06, Final residual = 5.15392e-07, No Iterations 2
time step continuity errors : sum local = 1.99367e-07, global = -6.34537e-17, cumulative = 2.47834e-14
smoothSolver:  Solving for nuTilda, Initial residual = 8.48872e-07, Final residual = 4.18141e-09, No Iterations 8
ExecutionTime = 432.11 s  ClockTime = 434 s

Time = 4985

smoothSolver:  Solving for Ux, Initial residual = 2.03493e-06, Final residual = 1.10026e-08, No Iterations 8
smoothSolver:  Solving for Uy, Initial residual = 1.08197e-05, Final residual = 6.10758e-08, No Iterations 8
GAMG:  Solving for p, Initial residual = 7.44008e-06, Final residual = 5.13708e-07, No Iterations 2
time step continuity errors : sum local = 1.9872e-07, global = 1.32373e-16, cumulative = 2.49157e-14
smoothSolver:  Solving for nuTilda, Initial residual = 8.47998e-07, Final residual = 4.17859e-09, No Iterations 8
ExecutionTime = 432.19 s  ClockTime = 434 s

forces wings output:
    sum of forces:
        pressure : (5.03361 23.6813 -4.22255e-20)
        viscous  : (0.0732661 -0.0154407 -2.42074e-21)
        porous   : (0 0 0)
    sum of moments:
        pressure : (-1.18406 0.251681 2.90611)
        viscous  : (0.000772034 0.0036633 -6.88602e-05)
        porous   : (0 0 0)

Time = 4986

smoothSolver:  Solving for Ux, Initial residual = 2.03174e-06, Final residual = 1.09871e-08, No Iterations 8
smoothSolver:  Solving for Uy, Initial residual = 1.07883e-05, Final residual = 6.08926e-08, No Iterations 8
GAMG:  Solving for p, Initial residual = 7.41658e-06, Final residual = 5.126e-07, No Iterations 2
time step continuity errors : sum local = 1.9829e-07, global = 7.64888e-17, cumulative = 2.49922e-14
smoothSolver:  Solving for nuTilda, Initial residual = 8.46505e-07, Final residual = 4.1757e-09, No Iterations 8
ExecutionTime = 432.27 s  ClockTime = 434 s

Time = 4987

smoothSolver:  Solving for Ux, Initial residual = 2.02859e-06, Final residual = 1.09704e-08, No Iterations 8
smoothSolver:  Solving for Uy, Initial residual = 1.0757e-05, Final residual = 6.07075e-08, No Iterations 8
GAMG:  Solving for p, Initial residual = 7.39377e-06, Final residual = 5.11639e-07, No Iterations 2
time step continuity errors : sum local = 1.97913e-07, global = 5.91954e-17, cumulative = 2.50514e-14
smoothSolver:  Solving for nuTilda, Initial residual = 8.45653e-07, Final residual = 4.17291e-09, No Iterations 8
ExecutionTime = 432.36 s  ClockTime = 434 s

Time = 4988

smoothSolver:  Solving for Ux, Initial residual = 2.02544e-06, Final residual = 1.09548e-08, No Iterations 8
smoothSolver:  Solving for Uy, Initial residual = 1.07259e-05, Final residual = 6.05237e-08, No Iterations 8
GAMG:  Solving for p, Initial residual = 7.37225e-06, Final residual = 5.10891e-07, No Iterations 2
time step continuity errors : sum local = 1.97617e-07, global = -1.0294e-16, cumulative = 2.49485e-14
smoothSolver:  Solving for nuTilda, Initial residual = 8.44176e-07, Final residual = 4.17011e-09, No Iterations 8
ExecutionTime = 432.44 s  ClockTime = 434 s

Time = 4989

smoothSolver:  Solving for Ux, Initial residual = 2.02235e-06, Final residual = 1.09382e-08, No Iterations 8
smoothSolver:  Solving for Uy, Initial residual = 1.06946e-05, Final residual = 6.03373e-08, No Iterations 8
GAMG:  Solving for p, Initial residual = 7.35088e-06, Final residual = 5.09821e-07, No Iterations 2
time step continuity errors : sum local = 1.97197e-07, global = 6.0276e-18, cumulative = 2.49545e-14
smoothSolver:  Solving for nuTilda, Initial residual = 8.43339e-07, Final residual = 4.16739e-09, No Iterations 8
ExecutionTime = 432.52 s  ClockTime = 434 s

Time = 4990

smoothSolver:  Solving for Ux, Initial residual = 2.01927e-06, Final residual = 1.09227e-08, No Iterations 8
smoothSolver:  Solving for Uy, Initial residual = 1.06635e-05, Final residual = 6.01517e-08, No Iterations 8
GAMG:  Solving for p, Initial residual = 7.32979e-06, Final residual = 5.08537e-07, No Iterations 2
time step continuity errors : sum local = 1.96698e-07, global = -1.16474e-16, cumulative = 2.4838e-14
smoothSolver:  Solving for nuTilda, Initial residual = 8.41891e-07, Final residual = 4.16461e-09, No Iterations 8
ExecutionTime = 432.6 s  ClockTime = 434 s

forces wings output:
    sum of forces:
        pressure : (5.03428 23.6844 -4.22037e-20)
        viscous  : (0.0732518 -0.0154376 -2.42197e-21)
        porous   : (0 0 0)
    sum of moments:
        pressure : (-1.18422 0.251714 2.90653)
        viscous  : (0.000771881 0.00366259 -6.88583e-05)
        porous   : (0 0 0)

Time = 4991

smoothSolver:  Solving for Ux, Initial residual = 2.01626e-06, Final residual = 1.09066e-08, No Iterations 8
smoothSolver:  Solving for Uy, Initial residual = 1.06321e-05, Final residual = 5.99641e-08, No Iterations 8
GAMG:  Solving for p, Initial residual = 7.3078e-06, Final residual = 5.06759e-07, No Iterations 2
time step continuity errors : sum local = 1.96014e-07, global = 1.48278e-16, cumulative = 2.49863e-14
smoothSolver:  Solving for nuTilda, Initial residual = 8.41071e-07, Final residual = 4.16191e-09, No Iterations 8
ExecutionTime = 432.69 s  ClockTime = 434 s

Time = 4992

smoothSolver:  Solving for Ux, Initial residual = 2.01324e-06, Final residual = 1.08917e-08, No Iterations 8
smoothSolver:  Solving for Uy, Initial residual = 1.06007e-05, Final residual = 5.9778e-08, No Iterations 8
GAMG:  Solving for p, Initial residual = 7.28531e-06, Final residual = 5.04893e-07, No Iterations 2
time step continuity errors : sum local = 1.95297e-07, global = -4.33017e-17, cumulative = 2.4943e-14
smoothSolver:  Solving for nuTilda, Initial residual = 8.39624e-07, Final residual = 4.15918e-09, No Iterations 8
ExecutionTime = 432.77 s  ClockTime = 434 s

Time = 4993

smoothSolver:  Solving for Ux, Initial residual = 2.01024e-06, Final residual = 1.08761e-08, No Iterations 8
smoothSolver:  Solving for Uy, Initial residual = 1.0569e-05, Final residual = 5.95905e-08, No Iterations 8
GAMG:  Solving for p, Initial residual = 7.2619e-06, Final residual = 5.02873e-07, No Iterations 2
time step continuity errors : sum local = 1.94522e-07, global = -8.50618e-17, cumulative = 2.48579e-14
smoothSolver:  Solving for nuTilda, Initial residual = 8.38805e-07, Final residual = 4.15649e-09, No Iterations 8
ExecutionTime = 432.85 s  ClockTime = 434 s

Time = 4994

smoothSolver:  Solving for Ux, Initial residual = 2.00722e-06, Final residual = 1.08617e-08, No Iterations 8
smoothSolver:  Solving for Uy, Initial residual = 1.05372e-05, Final residual = 5.94038e-08, No Iterations 8
GAMG:  Solving for p, Initial residual = 7.23859e-06, Final residual = 5.0115e-07, No Iterations 2
time step continuity errors : sum local = 1.93861e-07, global = 3.13705e-16, cumulative = 2.51717e-14
smoothSolver:  Solving for nuTilda, Initial residual = 8.37363e-07, Final residual = 4.15376e-09, No Iterations 8
ExecutionTime = 432.93 s  ClockTime = 434 s

Time = 4995

smoothSolver:  Solving for Ux, Initial residual = 2.00426e-06, Final residual = 1.08463e-08, No Iterations 8
smoothSolver:  Solving for Uy, Initial residual = 1.05052e-05, Final residual = 5.92158e-08, No Iterations 8
GAMG:  Solving for p, Initial residual = 7.21512e-06, Final residual = 4.9954e-07, No Iterations 2
time step continuity errors : sum local = 1.9324e-07, global = -3.73427e-16, cumulative = 2.47982e-14
smoothSolver:  Solving for nuTilda, Initial residual = 8.36544e-07, Final residual = 4.1511e-09, No Iterations 8
ExecutionTime = 433.01 s  ClockTime = 435 s

forces wings output:
    sum of forces:
        pressure : (5.03494 23.6875 -4.21811e-20)
        viscous  : (0.073238 -0.0154347 -2.42326e-21)
        porous   : (0 0 0)
    sum of moments:
        pressure : (-1.18438 0.251747 2.90696)
        viscous  : (0.000771735 0.0036619 -6.8866e-05)
        porous   : (0 0 0)

Time = 4996

smoothSolver:  Solving for Ux, Initial residual = 2.0013e-06, Final residual = 1.08319e-08, No Iterations 8
smoothSolver:  Solving for Uy, Initial residual = 1.04733e-05, Final residual = 5.90285e-08, No Iterations 8
GAMG:  Solving for p, Initial residual = 7.19257e-06, Final residual = 4.98314e-07, No Iterations 2
time step continuity errors : sum local = 1.92765e-07, global = -5.95927e-17, cumulative = 2.47386e-14
smoothSolver:  Solving for nuTilda, Initial residual = 8.35098e-07, Final residual = 4.14839e-09, No Iterations 8
ExecutionTime = 433.1 s  ClockTime = 435 s

Time = 4997

smoothSolver:  Solving for Ux, Initial residual = 1.99839e-06, Final residual = 1.08166e-08, No Iterations 8
smoothSolver:  Solving for Uy, Initial residual = 1.04413e-05, Final residual = 5.88399e-08, No Iterations 8
GAMG:  Solving for p, Initial residual = 7.1703e-06, Final residual = 4.97093e-07, No Iterations 2
time step continuity errors : sum local = 1.9229e-07, global = 4.14401e-17, cumulative = 2.47801e-14
smoothSolver:  Solving for nuTilda, Initial residual = 8.34279e-07, Final residual = 4.14583e-09, No Iterations 8
ExecutionTime = 433.18 s  ClockTime = 435 s

Time = 4998

smoothSolver:  Solving for Ux, Initial residual = 1.99548e-06, Final residual = 1.08024e-08, No Iterations 8
smoothSolver:  Solving for Uy, Initial residual = 1.04094e-05, Final residual = 5.86519e-08, No Iterations 8
GAMG:  Solving for p, Initial residual = 7.14894e-06, Final residual = 4.96023e-07, No Iterations 2
time step continuity errors : sum local = 1.91872e-07, global = 9.52917e-18, cumulative = 2.47896e-14
smoothSolver:  Solving for nuTilda, Initial residual = 8.3284e-07, Final residual = 4.14325e-09, No Iterations 8
ExecutionTime = 433.26 s  ClockTime = 435 s

Time = 4999

smoothSolver:  Solving for Ux, Initial residual = 1.99262e-06, Final residual = 1.07872e-08, No Iterations 8
smoothSolver:  Solving for Uy, Initial residual = 1.03775e-05, Final residual = 5.84628e-08, No Iterations 8
GAMG:  Solving for p, Initial residual = 7.12741e-06, Final residual = 4.94693e-07, No Iterations 2
time step continuity errors : sum local = 1.91356e-07, global = 4.15092e-17, cumulative = 2.48311e-14
smoothSolver:  Solving for nuTilda, Initial residual = 8.32034e-07, Final residual = 4.14068e-09, No Iterations 8
ExecutionTime = 433.34 s  ClockTime = 435 s

Time = 5000

smoothSolver:  Solving for Ux, Initial residual = 1.98975e-06, Final residual = 1.07731e-08, No Iterations 8
smoothSolver:  Solving for Uy, Initial residual = 1.03459e-05, Final residual = 5.82747e-08, No Iterations 8
GAMG:  Solving for p, Initial residual = 7.10608e-06, Final residual = 4.93308e-07, No Iterations 2
time step continuity errors : sum local = 1.90819e-07, global = 1.44451e-16, cumulative = 2.49756e-14
smoothSolver:  Solving for nuTilda, Initial residual = 8.30611e-07, Final residual = 4.13801e-09, No Iterations 8
ExecutionTime = 433.57 s  ClockTime = 435 s

forces wings output:
    sum of forces:
        pressure : (5.03559 23.6906 -4.21587e-20)
        viscous  : (0.0732239 -0.0154317 -2.42448e-21)
        porous   : (0 0 0)
    sum of moments:
        pressure : (-1.18453 0.251779 2.9074)
        viscous  : (0.000771585 0.0036612 -6.8864e-05)
        porous   : (0 0 0)

End

