/*---------------------------------------------------------------------------*\
| =========                 |                                                 |
| \\      /  F ield         | OpenFOAM: The Open Source CFD Toolbox           |
|  \\    /   O peration     | Version:  2.3.0                                 |
|   \\  /    A nd           | Web:      www.OpenFOAM.org                      |
|    \\/     M anipulation  |                                                 |
\*---------------------------------------------------------------------------*/
Build  : 2.3.0-f5222ca19ce6
Exec   : simpleFoam -case Runs/first_arc_300_-4/case
Date   : Jan 12 2015
Time   : 00:24:45
Host   : "lordvon-XPS-8300"
PID    : 9673
Case   : Runs/first_arc_300_-4/case
nProcs : 1
sigFpe : Enabling floating point exception trapping (FOAM_SIGFPE).
fileModificationChecking : Monitoring run-time modified files using timeStampMaster
allowSystemOperations : Disallowing user-supplied system call operations

// * * * * * * * * * * * * * * * * * * * * * * * * * * * * * * * * * * * * * //
Create time

Create mesh for time = 0

Reading field p

Reading field U

Reading/calculating face flux field phi

Selecting incompressible transport model Newtonian
Selecting RAS turbulence model SpalartAllmaras
SpalartAllmarasCoeffs
{
    sigmaNut        0.66666;
    kappa           0.41;
    Cb1             0.1355;
    Cb2             0.622;
    Cw2             0.3;
    Cw3             2;
    Cv1             7.1;
    Cv2             5;
}

    Employing Ashford correction
No finite volume options present


SIMPLE: convergence criteria
    field p	 tolerance 1e-12
    field U	 tolerance 1e-12
    field nuTilda	 tolerance 1e-12


Starting time loop

forces wings:
    Not including porosity effects

Time = 1

smoothSolver:  Solving for Ux, Initial residual = 1, Final residual = 0.00384612, No Iterations 6
smoothSolver:  Solving for Uy, Initial residual = 1, Final residual = 0.0079878, No Iterations 4
GAMG:  Solving for p, Initial residual = 1, Final residual = 0.00762811, No Iterations 10
time step continuity errors : sum local = 0.000791148, global = -4.7442e-17, cumulative = -4.7442e-17
smoothSolver:  Solving for nuTilda, Initial residual = 1, Final residual = 0.00396125, No Iterations 4
ExecutionTime = 0.37 s  ClockTime = 0 s

Time = 2

smoothSolver:  Solving for Ux, Initial residual = 0.537048, Final residual = 0.0027142, No Iterations 8
smoothSolver:  Solving for Uy, Initial residual = 0.595729, Final residual = 0.00332259, No Iterations 8
GAMG:  Solving for p, Initial residual = 0.740333, Final residual = 0.00507331, No Iterations 6
time step continuity errors : sum local = 0.00105557, global = -1.07385e-16, cumulative = -1.54827e-16
smoothSolver:  Solving for nuTilda, Initial residual = 0.186278, Final residual = 0.000732323, No Iterations 6
ExecutionTime = 0.46 s  ClockTime = 0 s

Time = 3

smoothSolver:  Solving for Ux, Initial residual = 0.197436, Final residual = 0.000980137, No Iterations 8
smoothSolver:  Solving for Uy, Initial residual = 0.193948, Final residual = 0.00106611, No Iterations 8
GAMG:  Solving for p, Initial residual = 0.564025, Final residual = 0.0048967, No Iterations 7
time step continuity errors : sum local = 0.0013929, global = 9.33549e-17, cumulative = -6.14726e-17
smoothSolver:  Solving for nuTilda, Initial residual = 0.0956322, Final residual = 0.000879559, No Iterations 6
ExecutionTime = 0.55 s  ClockTime = 0 s

Time = 4

smoothSolver:  Solving for Ux, Initial residual = 0.0668608, Final residual = 0.000261471, No Iterations 8
smoothSolver:  Solving for Uy, Initial residual = 0.0605265, Final residual = 0.000313845, No Iterations 8
GAMG:  Solving for p, Initial residual = 0.431609, Final residual = 0.00363275, No Iterations 7
time step continuity errors : sum local = 0.00105387, global = -1.4594e-16, cumulative = -2.07413e-16
smoothSolver:  Solving for nuTilda, Initial residual = 0.0727011, Final residual = 0.000209363, No Iterations 8
ExecutionTime = 0.65 s  ClockTime = 0 s

Time = 5

smoothSolver:  Solving for Ux, Initial residual = 0.187705, Final residual = 0.000936245, No Iterations 8
smoothSolver:  Solving for Uy, Initial residual = 0.23664, Final residual = 0.00127303, No Iterations 8
GAMG:  Solving for p, Initial residual = 0.358947, Final residual = 0.00307072, No Iterations 6
time step continuity errors : sum local = 0.000939584, global = 3.37338e-16, cumulative = 1.29925e-16
smoothSolver:  Solving for nuTilda, Initial residual = 0.0598428, Final residual = 0.000190048, No Iterations 8
ExecutionTime = 0.74 s  ClockTime = 0 s

forces wings output:
    sum of forces:
        pressure : (-179.96 519.113 3.92389e-18)
        viscous  : (0.533408 0.0251924 -2.69309e-20)
        porous   : (0 0 0)
    sum of moments:
        pressure : (-25.9556 -8.99802 -134.821)
        viscous  : (-0.00125962 0.0266704 -0.0444011)
        porous   : (0 0 0)

Time = 6

smoothSolver:  Solving for Ux, Initial residual = 0.150296, Final residual = 0.000711596, No Iterations 8
smoothSolver:  Solving for Uy, Initial residual = 0.204132, Final residual = 0.00108758, No Iterations 8
GAMG:  Solving for p, Initial residual = 0.29063, Final residual = 0.00290219, No Iterations 8
time step continuity errors : sum local = 0.000920883, global = -5.81461e-17, cumulative = 7.17792e-17
smoothSolver:  Solving for nuTilda, Initial residual = 0.0499728, Final residual = 0.00016464, No Iterations 8
ExecutionTime = 0.84 s  ClockTime = 1 s

Time = 7

smoothSolver:  Solving for Ux, Initial residual = 0.103214, Final residual = 0.000434068, No Iterations 8
smoothSolver:  Solving for Uy, Initial residual = 0.144584, Final residual = 0.000742388, No Iterations 8
GAMG:  Solving for p, Initial residual = 0.215228, Final residual = 0.00166024, No Iterations 7
time step continuity errors : sum local = 0.000521904, global = -9.21977e-17, cumulative = -2.04184e-17
smoothSolver:  Solving for nuTilda, Initial residual = 0.042039, Final residual = 0.000141703, No Iterations 8
ExecutionTime = 0.93 s  ClockTime = 1 s

Time = 8

smoothSolver:  Solving for Ux, Initial residual = 0.121637, Final residual = 0.000588872, No Iterations 8
smoothSolver:  Solving for Uy, Initial residual = 0.150516, Final residual = 0.000789951, No Iterations 8
GAMG:  Solving for p, Initial residual = 0.23051, Final residual = 0.00210462, No Iterations 6
time step continuity errors : sum local = 0.00068288, global = -4.55788e-17, cumulative = -6.59973e-17
smoothSolver:  Solving for nuTilda, Initial residual = 0.0356846, Final residual = 0.000122525, No Iterations 8
ExecutionTime = 1.02 s  ClockTime = 1 s

Time = 9

smoothSolver:  Solving for Ux, Initial residual = 0.049809, Final residual = 0.000220433, No Iterations 8
smoothSolver:  Solving for Uy, Initial residual = 0.0417419, Final residual = 0.000214147, No Iterations 8
GAMG:  Solving for p, Initial residual = 0.191046, Final residual = 0.0016435, No Iterations 8
time step continuity errors : sum local = 0.000532824, global = -1.50406e-16, cumulative = -2.16403e-16
smoothSolver:  Solving for nuTilda, Initial residual = 0.0306071, Final residual = 0.000107455, No Iterations 8
ExecutionTime = 1.12 s  ClockTime = 1 s

Time = 10

smoothSolver:  Solving for Ux, Initial residual = 0.0481051, Final residual = 0.000207512, No Iterations 8
smoothSolver:  Solving for Uy, Initial residual = 0.0632452, Final residual = 0.000323114, No Iterations 8
GAMG:  Solving for p, Initial residual = 0.154392, Final residual = 0.00121753, No Iterations 6
time step continuity errors : sum local = 0.000386551, global = -1.8932e-16, cumulative = -4.05723e-16
smoothSolver:  Solving for nuTilda, Initial residual = 0.0265489, Final residual = 9.59803e-05, No Iterations 8
ExecutionTime = 1.21 s  ClockTime = 1 s

forces wings output:
    sum of forces:
        pressure : (-106.972 330.723 2.38918e-18)
        viscous  : (0.501878 0.0422619 -3.39641e-20)
        porous   : (0 0 0)
    sum of moments:
        pressure : (-16.5362 -5.34858 -71.7312)
        viscous  : (-0.00211309 0.0250939 -0.0484008)
        porous   : (0 0 0)

Time = 11

smoothSolver:  Solving for Ux, Initial residual = 0.0642868, Final residual = 0.000301191, No Iterations 8
smoothSolver:  Solving for Uy, Initial residual = 0.0896202, Final residual = 0.000460334, No Iterations 8
GAMG:  Solving for p, Initial residual = 0.154326, Final residual = 0.00154127, No Iterations 6
time step continuity errors : sum local = 0.0004986, global = -7.76916e-17, cumulative = -4.83415e-16
smoothSolver:  Solving for nuTilda, Initial residual = 0.0232509, Final residual = 8.69275e-05, No Iterations 8
ExecutionTime = 1.3 s  ClockTime = 1 s

Time = 12

smoothSolver:  Solving for Ux, Initial residual = 0.0298661, Final residual = 0.000114555, No Iterations 8
smoothSolver:  Solving for Uy, Initial residual = 0.0240503, Final residual = 0.000111605, No Iterations 8
GAMG:  Solving for p, Initial residual = 0.120258, Final residual = 0.000949594, No Iterations 8
time step continuity errors : sum local = 0.000299416, global = 4.33231e-16, cumulative = -5.01837e-17
smoothSolver:  Solving for nuTilda, Initial residual = 0.0205244, Final residual = 7.92934e-05, No Iterations 8
ExecutionTime = 1.4 s  ClockTime = 1 s

Time = 13

smoothSolver:  Solving for Ux, Initial residual = 0.0408088, Final residual = 0.000172767, No Iterations 8
smoothSolver:  Solving for Uy, Initial residual = 0.0559809, Final residual = 0.000281828, No Iterations 8
GAMG:  Solving for p, Initial residual = 0.10209, Final residual = 0.00059669, No Iterations 6
time step continuity errors : sum local = 0.000183144, global = -1.13633e-16, cumulative = -1.63817e-16
smoothSolver:  Solving for nuTilda, Initial residual = 0.0182086, Final residual = 7.25434e-05, No Iterations 8
ExecutionTime = 1.49 s  ClockTime = 1 s

Time = 14

smoothSolver:  Solving for Ux, Initial residual = 0.0377187, Final residual = 0.000171463, No Iterations 8
smoothSolver:  Solving for Uy, Initial residual = 0.0433721, Final residual = 0.000219136, No Iterations 8
GAMG:  Solving for p, Initial residual = 0.104312, Final residual = 0.000998418, No Iterations 6
time step continuity errors : sum local = 0.000316094, global = 5.84409e-17, cumulative = -1.05376e-16
smoothSolver:  Solving for nuTilda, Initial residual = 0.0162699, Final residual = 6.67446e-05, No Iterations 8
ExecutionTime = 1.58 s  ClockTime = 1 s

Time = 15

smoothSolver:  Solving for Ux, Initial residual = 0.0172339, Final residual = 6.68748e-05, No Iterations 8
smoothSolver:  Solving for Uy, Initial residual = 0.0115874, Final residual = 5.24986e-05, No Iterations 8
GAMG:  Solving for p, Initial residual = 0.0806444, Final residual = 0.000569532, No Iterations 8
time step continuity errors : sum local = 0.000177094, global = -1.6674e-17, cumulative = -1.2205e-16
smoothSolver:  Solving for nuTilda, Initial residual = 0.0146626, Final residual = 6.18762e-05, No Iterations 8
ExecutionTime = 1.68 s  ClockTime = 1 s

forces wings output:
    sum of forces:
        pressure : (-36.1612 121.479 7.27218e-19)
        viscous  : (0.487631 0.0396915 -1.34091e-20)
        porous   : (0 0 0)
    sum of moments:
        pressure : (-6.07393 -1.80806 -20.5745)
        viscous  : (-0.00198458 0.0243816 -0.0458073)
        porous   : (0 0 0)

Time = 16

smoothSolver:  Solving for Ux, Initial residual = 0.0222514, Final residual = 9.29202e-05, No Iterations 8
smoothSolver:  Solving for Uy, Initial residual = 0.0327268, Final residual = 0.000162431, No Iterations 8
GAMG:  Solving for p, Initial residual = 0.0728144, Final residual = 0.000547457, No Iterations 6
time step continuity errors : sum local = 0.000167099, global = 1.69783e-16, cumulative = 4.77329e-17
smoothSolver:  Solving for nuTilda, Initial residual = 0.0133666, Final residual = 5.78006e-05, No Iterations 8
ExecutionTime = 1.77 s  ClockTime = 1 s

Time = 17

smoothSolver:  Solving for Ux, Initial residual = 0.0193438, Final residual = 8.3253e-05, No Iterations 8
smoothSolver:  Solving for Uy, Initial residual = 0.0257415, Final residual = 0.000126587, No Iterations 8
GAMG:  Solving for p, Initial residual = 0.0704317, Final residual = 0.000490142, No Iterations 7
time step continuity errors : sum local = 0.000151844, global = -6.20669e-17, cumulative = -1.4334e-17
smoothSolver:  Solving for nuTilda, Initial residual = 0.0122798, Final residual = 5.4259e-05, No Iterations 8
ExecutionTime = 1.86 s  ClockTime = 2 s

Time = 18

smoothSolver:  Solving for Ux, Initial residual = 0.0117471, Final residual = 4.11869e-05, No Iterations 8
smoothSolver:  Solving for Uy, Initial residual = 0.0130584, Final residual = 5.97411e-05, No Iterations 8
GAMG:  Solving for p, Initial residual = 0.0543649, Final residual = 0.000492322, No Iterations 6
time step continuity errors : sum local = 0.00015001, global = -7.11169e-18, cumulative = -2.14457e-17
smoothSolver:  Solving for nuTilda, Initial residual = 0.0113349, Final residual = 5.10067e-05, No Iterations 8
ExecutionTime = 1.95 s  ClockTime = 2 s

Time = 19

smoothSolver:  Solving for Ux, Initial residual = 0.0167126, Final residual = 6.96396e-05, No Iterations 8
smoothSolver:  Solving for Uy, Initial residual = 0.0214279, Final residual = 0.000104044, No Iterations 8
GAMG:  Solving for p, Initial residual = 0.051486, Final residual = 0.000319313, No Iterations 6
time step continuity errors : sum local = 9.63763e-05, global = -6.54246e-17, cumulative = -8.68703e-17
smoothSolver:  Solving for nuTilda, Initial residual = 0.0105007, Final residual = 4.80064e-05, No Iterations 8
ExecutionTime = 2.04 s  ClockTime = 2 s

Time = 20

smoothSolver:  Solving for Ux, Initial residual = 0.0129418, Final residual = 5.48509e-05, No Iterations 8
smoothSolver:  Solving for Uy, Initial residual = 0.0119449, Final residual = 5.72423e-05, No Iterations 8
GAMG:  Solving for p, Initial residual = 0.0459337, Final residual = 0.000344883, No Iterations 6
time step continuity errors : sum local = 0.000105087, global = -5.52266e-17, cumulative = -1.42097e-16
smoothSolver:  Solving for nuTilda, Initial residual = 0.00978645, Final residual = 4.52707e-05, No Iterations 8
ExecutionTime = 2.14 s  ClockTime = 2 s

forces wings output:
    sum of forces:
        pressure : (-4.58848 20.0174 -1.70539e-20)
        viscous  : (0.474412 0.0343275 1.25974e-21)
        porous   : (0 0 0)
    sum of moments:
        pressure : (-1.00087 -0.229424 -0.863575)
        viscous  : (-0.00171637 0.0237206 -0.0429719)
        porous   : (0 0 0)

Time = 21

smoothSolver:  Solving for Ux, Initial residual = 0.00892791, Final residual = 3.52419e-05, No Iterations 8
smoothSolver:  Solving for Uy, Initial residual = 0.0092602, Final residual = 4.21729e-05, No Iterations 8
GAMG:  Solving for p, Initial residual = 0.0352761, Final residual = 0.000254468, No Iterations 6
time step continuity errors : sum local = 7.65951e-05, global = 6.61751e-17, cumulative = -7.59218e-17
smoothSolver:  Solving for nuTilda, Initial residual = 0.00917059, Final residual = 4.28231e-05, No Iterations 8
ExecutionTime = 2.23 s  ClockTime = 2 s

Time = 22

smoothSolver:  Solving for Ux, Initial residual = 0.00876645, Final residual = 3.50187e-05, No Iterations 8
smoothSolver:  Solving for Uy, Initial residual = 0.0134547, Final residual = 6.43687e-05, No Iterations 8
GAMG:  Solving for p, Initial residual = 0.0349272, Final residual = 0.000197869, No Iterations 6
time step continuity errors : sum local = 5.92108e-05, global = 5.68155e-17, cumulative = -1.91063e-17
smoothSolver:  Solving for nuTilda, Initial residual = 0.00863392, Final residual = 4.06189e-05, No Iterations 8
ExecutionTime = 2.32 s  ClockTime = 2 s

Time = 23

smoothSolver:  Solving for Ux, Initial residual = 0.00608963, Final residual = 2.28286e-05, No Iterations 8
smoothSolver:  Solving for Uy, Initial residual = 0.00673428, Final residual = 3.14888e-05, No Iterations 8
GAMG:  Solving for p, Initial residual = 0.0307824, Final residual = 0.000249581, No Iterations 6
time step continuity errors : sum local = 7.54755e-05, global = -5.78421e-17, cumulative = -7.69484e-17
smoothSolver:  Solving for nuTilda, Initial residual = 0.00814889, Final residual = 3.8604e-05, No Iterations 8
ExecutionTime = 2.41 s  ClockTime = 2 s

Time = 24

smoothSolver:  Solving for Ux, Initial residual = 0.00642217, Final residual = 2.36405e-05, No Iterations 8
smoothSolver:  Solving for Uy, Initial residual = 0.0075027, Final residual = 3.46203e-05, No Iterations 8
GAMG:  Solving for p, Initial residual = 0.0241844, Final residual = 0.000200211, No Iterations 6
time step continuity errors : sum local = 5.97233e-05, global = 4.85166e-17, cumulative = -2.84318e-17
smoothSolver:  Solving for nuTilda, Initial residual = 0.00770285, Final residual = 3.67099e-05, No Iterations 8
ExecutionTime = 2.5 s  ClockTime = 2 s

Time = 25

smoothSolver:  Solving for Ux, Initial residual = 0.00735047, Final residual = 2.99295e-05, No Iterations 8
smoothSolver:  Solving for Uy, Initial residual = 0.00771942, Final residual = 3.62255e-05, No Iterations 8
GAMG:  Solving for p, Initial residual = 0.023708, Final residual = 0.00016703, No Iterations 6
time step continuity errors : sum local = 4.97615e-05, global = -8.3194e-17, cumulative = -1.11626e-16
smoothSolver:  Solving for nuTilda, Initial residual = 0.00729966, Final residual = 3.4953e-05, No Iterations 8
ExecutionTime = 2.59 s  ClockTime = 2 s

forces wings output:
    sum of forces:
        pressure : (3.23381 -3.61323 -1.83586e-19)
        viscous  : (0.460293 0.0307471 4.5701e-21)
        porous   : (0 0 0)
    sum of moments:
        pressure : (0.180661 0.161691 4.59186)
        viscous  : (-0.00153735 0.0230146 -0.0409725)
        porous   : (0 0 0)

Time = 26

smoothSolver:  Solving for Ux, Initial residual = 0.00574081, Final residual = 2.4035e-05, No Iterations 8
smoothSolver:  Solving for Uy, Initial residual = 0.00389354, Final residual = 1.73975e-05, No Iterations 8
GAMG:  Solving for p, Initial residual = 0.0203763, Final residual = 0.000164544, No Iterations 5
time step continuity errors : sum local = 4.87292e-05, global = -7.45228e-17, cumulative = -1.86149e-16
smoothSolver:  Solving for nuTilda, Initial residual = 0.00693819, Final residual = 3.33129e-05, No Iterations 8
ExecutionTime = 2.68 s  ClockTime = 2 s

Time = 27

smoothSolver:  Solving for Ux, Initial residual = 0.00479646, Final residual = 1.98523e-05, No Iterations 8
smoothSolver:  Solving for Uy, Initial residual = 0.00537984, Final residual = 2.41513e-05, No Iterations 8
GAMG:  Solving for p, Initial residual = 0.0165222, Final residual = 0.000145637, No Iterations 5
time step continuity errors : sum local = 4.30532e-05, global = -1.47201e-16, cumulative = -3.33349e-16
smoothSolver:  Solving for nuTilda, Initial residual = 0.00662119, Final residual = 3.1844e-05, No Iterations 8
ExecutionTime = 2.77 s  ClockTime = 2 s

Time = 28

smoothSolver:  Solving for Ux, Initial residual = 0.00407498, Final residual = 1.5985e-05, No Iterations 8
smoothSolver:  Solving for Uy, Initial residual = 0.00522121, Final residual = 2.41003e-05, No Iterations 8
GAMG:  Solving for p, Initial residual = 0.0158314, Final residual = 0.000157776, No Iterations 5
time step continuity errors : sum local = 4.68204e-05, global = -1.65975e-16, cumulative = -4.99324e-16
smoothSolver:  Solving for nuTilda, Initial residual = 0.00632376, Final residual = 3.04492e-05, No Iterations 8
ExecutionTime = 2.86 s  ClockTime = 3 s

Time = 29

smoothSolver:  Solving for Ux, Initial residual = 0.0036575, Final residual = 1.37259e-05, No Iterations 8
smoothSolver:  Solving for Uy, Initial residual = 0.00326127, Final residual = 1.48322e-05, No Iterations 8
GAMG:  Solving for p, Initial residual = 0.0140058, Final residual = 8.90575e-05, No Iterations 5
time step continuity errors : sum local = 2.62233e-05, global = -1.06232e-16, cumulative = -6.05556e-16
smoothSolver:  Solving for nuTilda, Initial residual = 0.00605596, Final residual = 2.91944e-05, No Iterations 8
ExecutionTime = 2.94 s  ClockTime = 3 s

Time = 30

smoothSolver:  Solving for Ux, Initial residual = 0.00432435, Final residual = 1.70928e-05, No Iterations 8
smoothSolver:  Solving for Uy, Initial residual = 0.00380391, Final residual = 1.78387e-05, No Iterations 8
GAMG:  Solving for p, Initial residual = 0.0118421, Final residual = 0.000103679, No Iterations 5
time step continuity errors : sum local = 3.06659e-05, global = 2.81301e-16, cumulative = -3.24255e-16
smoothSolver:  Solving for nuTilda, Initial residual = 0.00579392, Final residual = 2.79593e-05, No Iterations 8
ExecutionTime = 3.03 s  ClockTime = 3 s

forces wings output:
    sum of forces:
        pressure : (3.10952 -0.643771 -1.77719e-19)
        viscous  : (0.446041 0.0287127 4.21405e-21)
        porous   : (0 0 0)
    sum of moments:
        pressure : (0.0321886 0.155476 5.48974)
        viscous  : (-0.00143563 0.0223021 -0.0395187)
        porous   : (0 0 0)

Time = 31

smoothSolver:  Solving for Ux, Initial residual = 0.00438602, Final residual = 1.80488e-05, No Iterations 8
smoothSolver:  Solving for Uy, Initial residual = 0.00295328, Final residual = 1.4148e-05, No Iterations 8
GAMG:  Solving for p, Initial residual = 0.0105996, Final residual = 8.81882e-05, No Iterations 5
time step continuity errors : sum local = 2.57581e-05, global = 5.02708e-16, cumulative = 1.78452e-16
smoothSolver:  Solving for nuTilda, Initial residual = 0.00555797, Final residual = 2.68647e-05, No Iterations 8
ExecutionTime = 3.12 s  ClockTime = 3 s

Time = 32

smoothSolver:  Solving for Ux, Initial residual = 0.00389309, Final residual = 1.63111e-05, No Iterations 8
smoothSolver:  Solving for Uy, Initial residual = 0.00234601, Final residual = 1.10412e-05, No Iterations 8
GAMG:  Solving for p, Initial residual = 0.00943575, Final residual = 6.01851e-05, No Iterations 5
time step continuity errors : sum local = 1.7871e-05, global = 9.11625e-17, cumulative = 2.69615e-16
smoothSolver:  Solving for nuTilda, Initial residual = 0.00532618, Final residual = 2.57605e-05, No Iterations 8
ExecutionTime = 3.21 s  ClockTime = 3 s

Time = 33

smoothSolver:  Solving for Ux, Initial residual = 0.00341862, Final residual = 1.41762e-05, No Iterations 8
smoothSolver:  Solving for Uy, Initial residual = 0.00284345, Final residual = 1.33857e-05, No Iterations 8
GAMG:  Solving for p, Initial residual = 0.00836871, Final residual = 8.30157e-05, No Iterations 5
time step continuity errors : sum local = 2.44714e-05, global = -1.596e-16, cumulative = 1.10015e-16
smoothSolver:  Solving for nuTilda, Initial residual = 0.00512341, Final residual = 2.48093e-05, No Iterations 8
ExecutionTime = 3.3 s  ClockTime = 3 s

Time = 34

smoothSolver:  Solving for Ux, Initial residual = 0.00315913, Final residual = 1.27056e-05, No Iterations 8
smoothSolver:  Solving for Uy, Initial residual = 0.0023086, Final residual = 1.10835e-05, No Iterations 8
GAMG:  Solving for p, Initial residual = 0.00725848, Final residual = 5.76655e-05, No Iterations 5
time step continuity errors : sum local = 1.68719e-05, global = -7.43025e-17, cumulative = 3.57127e-17
smoothSolver:  Solving for nuTilda, Initial residual = 0.00492179, Final residual = 2.38273e-05, No Iterations 8
ExecutionTime = 3.39 s  ClockTime = 3 s

Time = 35

smoothSolver:  Solving for Ux, Initial residual = 0.00326058, Final residual = 1.3123e-05, No Iterations 8
smoothSolver:  Solving for Uy, Initial residual = 0.0021997, Final residual = 1.04936e-05, No Iterations 8
GAMG:  Solving for p, Initial residual = 0.00663704, Final residual = 6.58187e-05, No Iterations 4
time step continuity errors : sum local = 1.94405e-05, global = 1.03271e-16, cumulative = 1.38984e-16
smoothSolver:  Solving for nuTilda, Initial residual = 0.00474319, Final residual = 2.29843e-05, No Iterations 8
ExecutionTime = 3.47 s  ClockTime = 3 s

forces wings output:
    sum of forces:
        pressure : (2.03815 3.76801 -1.4918e-19)
        viscous  : (0.431237 0.0273441 3.57671e-21)
        porous   : (0 0 0)
    sum of moments:
        pressure : (-0.1884 0.101907 5.18861)
        viscous  : (-0.0013672 0.0215619 -0.0382002)
        porous   : (0 0 0)

Time = 36

smoothSolver:  Solving for Ux, Initial residual = 0.00342862, Final residual = 1.41525e-05, No Iterations 8
smoothSolver:  Solving for Uy, Initial residual = 0.00210935, Final residual = 1.02533e-05, No Iterations 8
GAMG:  Solving for p, Initial residual = 0.00629231, Final residual = 5.01921e-05, No Iterations 5
time step continuity errors : sum local = 1.47878e-05, global = 5.14443e-17, cumulative = 1.90428e-16
smoothSolver:  Solving for nuTilda, Initial residual = 0.00456416, Final residual = 2.21079e-05, No Iterations 8
ExecutionTime = 3.56 s  ClockTime = 3 s

Time = 37

smoothSolver:  Solving for Ux, Initial residual = 0.00338855, Final residual = 1.42684e-05, No Iterations 8
smoothSolver:  Solving for Uy, Initial residual = 0.00164195, Final residual = 8.1591e-06, No Iterations 8
GAMG:  Solving for p, Initial residual = 0.00539619, Final residual = 3.13171e-05, No Iterations 5
time step continuity errors : sum local = 9.20782e-06, global = -1.09799e-16, cumulative = 8.0629e-17
smoothSolver:  Solving for nuTilda, Initial residual = 0.00440508, Final residual = 2.13447e-05, No Iterations 8
bounding nuTilda, min: -7.27589e-06 max: 0.410187 average: 0.0783587
ExecutionTime = 3.65 s  ClockTime = 3 s

Time = 38

smoothSolver:  Solving for Ux, Initial residual = 0.00317125, Final residual = 1.34628e-05, No Iterations 8
smoothSolver:  Solving for Uy, Initial residual = 0.00179466, Final residual = 8.6911e-06, No Iterations 8
GAMG:  Solving for p, Initial residual = 0.00479832, Final residual = 2.04573e-05, No Iterations 5
time step continuity errors : sum local = 6.02527e-06, global = -1.35152e-16, cumulative = -5.45225e-17
smoothSolver:  Solving for nuTilda, Initial residual = 0.00424698, Final residual = 2.05634e-05, No Iterations 8
ExecutionTime = 3.74 s  ClockTime = 3 s

Time = 39

smoothSolver:  Solving for Ux, Initial residual = 0.00296262, Final residual = 1.24451e-05, No Iterations 8
smoothSolver:  Solving for Uy, Initial residual = 0.00182008, Final residual = 8.89082e-06, No Iterations 8
GAMG:  Solving for p, Initial residual = 0.00455778, Final residual = 3.53557e-05, No Iterations 5
time step continuity errors : sum local = 1.03987e-05, global = -4.56051e-17, cumulative = -1.00128e-16
smoothSolver:  Solving for nuTilda, Initial residual = 0.00410393, Final residual = 1.98813e-05, No Iterations 8
ExecutionTime = 3.82 s  ClockTime = 3 s

Time = 40

smoothSolver:  Solving for Ux, Initial residual = 0.00287188, Final residual = 1.19323e-05, No Iterations 8
smoothSolver:  Solving for Uy, Initial residual = 0.00167626, Final residual = 8.30817e-06, No Iterations 8
GAMG:  Solving for p, Initial residual = 0.00394746, Final residual = 2.82028e-05, No Iterations 5
time step continuity errors : sum local = 8.32072e-06, global = 1.65591e-16, cumulative = 6.5463e-17
smoothSolver:  Solving for nuTilda, Initial residual = 0.00396284, Final residual = 1.91914e-05, No Iterations 8
ExecutionTime = 3.92 s  ClockTime = 4 s

forces wings output:
    sum of forces:
        pressure : (1.51667 5.24536 -1.40391e-19)
        viscous  : (0.417865 0.0261969 3.54859e-21)
        porous   : (0 0 0)
    sum of moments:
        pressure : (-0.262268 0.0758335 4.78773)
        viscous  : (-0.00130984 0.0208932 -0.0370671)
        porous   : (0 0 0)

Time = 41

smoothSolver:  Solving for Ux, Initial residual = 0.0028983, Final residual = 1.20517e-05, No Iterations 8
smoothSolver:  Solving for Uy, Initial residual = 0.00166626, Final residual = 8.24166e-06, No Iterations 8
GAMG:  Solving for p, Initial residual = 0.00362842, Final residual = 1.66853e-05, No Iterations 5
time step continuity errors : sum local = 4.85865e-06, global = -8.96783e-17, cumulative = -2.42153e-17
smoothSolver:  Solving for nuTilda, Initial residual = 0.00383281, Final residual = 1.85693e-05, No Iterations 8
bounding nuTilda, min: -1.70743e-05 max: 0.410159 average: 0.0755508
ExecutionTime = 4.01 s  ClockTime = 4 s

Time = 42

smoothSolver:  Solving for Ux, Initial residual = 0.00293458, Final residual = 1.23821e-05, No Iterations 8
smoothSolver:  Solving for Uy, Initial residual = 0.00151498, Final residual = 7.67518e-06, No Iterations 8
GAMG:  Solving for p, Initial residual = 0.00341823, Final residual = 2.2573e-05, No Iterations 5
time step continuity errors : sum local = 6.57476e-06, global = -1.01914e-16, cumulative = -1.26129e-16
smoothSolver:  Solving for nuTilda, Initial residual = 0.00370489, Final residual = 1.7949e-05, No Iterations 8
ExecutionTime = 4.1 s  ClockTime = 4 s

Time = 43

smoothSolver:  Solving for Ux, Initial residual = 0.00289076, Final residual = 1.23317e-05, No Iterations 8
smoothSolver:  Solving for Uy, Initial residual = 0.00143509, Final residual = 7.34114e-06, No Iterations 8
GAMG:  Solving for p, Initial residual = 0.00309339, Final residual = 2.82959e-05, No Iterations 4
time step continuity errors : sum local = 8.31284e-06, global = 1.03339e-16, cumulative = -2.27907e-17
smoothSolver:  Solving for nuTilda, Initial residual = 0.00358607, Final residual = 1.73811e-05, No Iterations 8
ExecutionTime = 4.18 s  ClockTime = 4 s

Time = 44

smoothSolver:  Solving for Ux, Initial residual = 0.0027889, Final residual = 1.19218e-05, No Iterations 8
smoothSolver:  Solving for Uy, Initial residual = 0.00149084, Final residual = 7.56311e-06, No Iterations 8
GAMG:  Solving for p, Initial residual = 0.00284029, Final residual = 1.47885e-05, No Iterations 5
time step continuity errors : sum local = 4.34386e-06, global = 1.65681e-16, cumulative = 1.4289e-16
smoothSolver:  Solving for nuTilda, Initial residual = 0.00347094, Final residual = 1.68265e-05, No Iterations 8
ExecutionTime = 4.27 s  ClockTime = 4 s

Time = 45

smoothSolver:  Solving for Ux, Initial residual = 0.00269204, Final residual = 1.14894e-05, No Iterations 8
smoothSolver:  Solving for Uy, Initial residual = 0.00149594, Final residual = 7.64404e-06, No Iterations 8
GAMG:  Solving for p, Initial residual = 0.00261741, Final residual = 1.87346e-05, No Iterations 5
time step continuity errors : sum local = 5.49159e-06, global = 6.35978e-17, cumulative = 2.06488e-16
smoothSolver:  Solving for nuTilda, Initial residual = 0.00336392, Final residual = 1.631e-05, No Iterations 8
bounding nuTilda, min: -4.67748e-05 max: 0.410132 average: 0.0729666
ExecutionTime = 4.36 s  ClockTime = 4 s

forces wings output:
    sum of forces:
        pressure : (1.39729 5.25456 -1.38199e-19)
        viscous  : (0.404121 0.0250999 3.93113e-21)
        porous   : (0 0 0)
    sum of moments:
        pressure : (-0.262728 0.0698647 4.57109)
        viscous  : (-0.00125499 0.020206 -0.0358828)
        porous   : (0 0 0)

Time = 46

smoothSolver:  Solving for Ux, Initial residual = 0.0026426, Final residual = 1.12533e-05, No Iterations 8
smoothSolver:  Solving for Uy, Initial residual = 0.00147632, Final residual = 7.60061e-06, No Iterations 8
GAMG:  Solving for p, Initial residual = 0.00237987, Final residual = 1.61246e-05, No Iterations 5
time step continuity errors : sum local = 4.74335e-06, global = 1.28016e-16, cumulative = 3.34504e-16
smoothSolver:  Solving for nuTilda, Initial residual = 0.00326115, Final residual = 1.58096e-05, No Iterations 8
ExecutionTime = 4.45 s  ClockTime = 4 s

Time = 47

smoothSolver:  Solving for Ux, Initial residual = 0.00263357, Final residual = 1.12085e-05, No Iterations 8
smoothSolver:  Solving for Uy, Initial residual = 0.00143673, Final residual = 7.39409e-06, No Iterations 8
GAMG:  Solving for p, Initial residual = 0.00229746, Final residual = 1.05109e-05, No Iterations 5
time step continuity errors : sum local = 3.09375e-06, global = 3.66378e-17, cumulative = 3.71142e-16
smoothSolver:  Solving for nuTilda, Initial residual = 0.00316429, Final residual = 1.53356e-05, No Iterations 8
ExecutionTime = 4.54 s  ClockTime = 4 s

Time = 48

smoothSolver:  Solving for Ux, Initial residual = 0.00262546, Final residual = 1.11963e-05, No Iterations 8
smoothSolver:  Solving for Uy, Initial residual = 0.00138757, Final residual = 7.16027e-06, No Iterations 8
GAMG:  Solving for p, Initial residual = 0.00214853, Final residual = 1.03954e-05, No Iterations 5
time step continuity errors : sum local = 3.05192e-06, global = 3.07104e-16, cumulative = 6.78246e-16
smoothSolver:  Solving for nuTilda, Initial residual = 0.00307132, Final residual = 1.48791e-05, No Iterations 8
ExecutionTime = 4.62 s  ClockTime = 4 s

Time = 49

smoothSolver:  Solving for Ux, Initial residual = 0.00258844, Final residual = 1.10658e-05, No Iterations 8
smoothSolver:  Solving for Uy, Initial residual = 0.00137711, Final residual = 7.09336e-06, No Iterations 8
GAMG:  Solving for p, Initial residual = 0.00197741, Final residual = 1.14907e-05, No Iterations 5
time step continuity errors : sum local = 3.38613e-06, global = 3.10102e-16, cumulative = 9.88348e-16
smoothSolver:  Solving for nuTilda, Initial residual = 0.00298276, Final residual = 1.44418e-05, No Iterations 8
bounding nuTilda, min: -4.54838e-05 max: 0.41012 average: 0.0705773
ExecutionTime = 4.71 s  ClockTime = 4 s

Time = 50

smoothSolver:  Solving for Ux, Initial residual = 0.00253072, Final residual = 1.08275e-05, No Iterations 8
smoothSolver:  Solving for Uy, Initial residual = 0.00138924, Final residual = 7.13728e-06, No Iterations 8
GAMG:  Solving for p, Initial residual = 0.00186158, Final residual = 1.23057e-05, No Iterations 5
time step continuity errors : sum local = 3.60908e-06, global = 2.72127e-17, cumulative = 1.01556e-15
smoothSolver:  Solving for nuTilda, Initial residual = 0.00289816, Final residual = 1.40227e-05, No Iterations 8
ExecutionTime = 4.8 s  ClockTime = 4 s

forces wings output:
    sum of forces:
        pressure : (1.41979 5.13271 -1.34279e-19)
        viscous  : (0.391362 0.0240117 4.55224e-21)
        porous   : (0 0 0)
    sum of moments:
        pressure : (-0.256635 0.0709893 4.56631)
        viscous  : (-0.00120058 0.0195681 -0.03479)
        porous   : (0 0 0)

Time = 51

smoothSolver:  Solving for Ux, Initial residual = 0.0024772, Final residual = 1.06001e-05, No Iterations 8
smoothSolver:  Solving for Uy, Initial residual = 0.00139759, Final residual = 7.17518e-06, No Iterations 8
GAMG:  Solving for p, Initial residual = 0.00176597, Final residual = 1.26046e-05, No Iterations 5
time step continuity errors : sum local = 3.69621e-06, global = -1.30334e-17, cumulative = 1.00253e-15
smoothSolver:  Solving for nuTilda, Initial residual = 0.00281727, Final residual = 1.36195e-05, No Iterations 8
ExecutionTime = 4.89 s  ClockTime = 5 s

Time = 52

smoothSolver:  Solving for Ux, Initial residual = 0.00244284, Final residual = 1.04548e-05, No Iterations 8
smoothSolver:  Solving for Uy, Initial residual = 0.00139225, Final residual = 7.13845e-06, No Iterations 8
GAMG:  Solving for p, Initial residual = 0.00165657, Final residual = 1.42579e-05, No Iterations 5
time step continuity errors : sum local = 4.1703e-06, global = -9.79749e-17, cumulative = 9.04553e-16
smoothSolver:  Solving for nuTilda, Initial residual = 0.00274008, Final residual = 1.3234e-05, No Iterations 8
ExecutionTime = 4.98 s  ClockTime = 5 s

Time = 53

smoothSolver:  Solving for Ux, Initial residual = 0.00242356, Final residual = 1.03729e-05, No Iterations 8
smoothSolver:  Solving for Uy, Initial residual = 0.00137276, Final residual = 7.02617e-06, No Iterations 8
GAMG:  Solving for p, Initial residual = 0.00158988, Final residual = 1.27039e-05, No Iterations 5
time step continuity errors : sum local = 3.71874e-06, global = 2.0402e-16, cumulative = 1.10857e-15
smoothSolver:  Solving for nuTilda, Initial residual = 0.00266601, Final residual = 1.28622e-05, No Iterations 8
bounding nuTilda, min: -2.13295e-05 max: 0.410105 average: 0.0683595
ExecutionTime = 5.07 s  ClockTime = 5 s

Time = 54

smoothSolver:  Solving for Ux, Initial residual = 0.00240637, Final residual = 1.02941e-05, No Iterations 8
smoothSolver:  Solving for Uy, Initial residual = 0.00135243, Final residual = 6.91805e-06, No Iterations 8
GAMG:  Solving for p, Initial residual = 0.00152406, Final residual = 1.08416e-05, No Iterations 5
time step continuity errors : sum local = 3.17376e-06, global = -7.94705e-17, cumulative = 1.0291e-15
smoothSolver:  Solving for nuTilda, Initial residual = 0.00259527, Final residual = 1.25067e-05, No Iterations 8
ExecutionTime = 5.15 s  ClockTime = 5 s

Time = 55

smoothSolver:  Solving for Ux, Initial residual = 0.0023806, Final residual = 1.01775e-05, No Iterations 8
smoothSolver:  Solving for Uy, Initial residual = 0.00134439, Final residual = 6.86271e-06, No Iterations 8
GAMG:  Solving for p, Initial residual = 0.00144548, Final residual = 9.18534e-06, No Iterations 5
time step continuity errors : sum local = 2.68493e-06, global = 1.16236e-16, cumulative = 1.14534e-15
smoothSolver:  Solving for nuTilda, Initial residual = 0.00252735, Final residual = 1.21634e-05, No Iterations 8
ExecutionTime = 5.24 s  ClockTime = 5 s

forces wings output:
    sum of forces:
        pressure : (1.45724 5.12955 -1.30791e-19)
        viscous  : (0.379072 0.0230001 4.82671e-21)
        porous   : (0 0 0)
    sum of moments:
        pressure : (-0.256478 0.0728621 4.63419)
        viscous  : (-0.00115 0.0189536 -0.0337279)
        porous   : (0 0 0)

Time = 56

smoothSolver:  Solving for Ux, Initial residual = 0.00234711, Final residual = 1.0023e-05, No Iterations 8
smoothSolver:  Solving for Uy, Initial residual = 0.0013459, Final residual = 6.85304e-06, No Iterations 8
GAMG:  Solving for p, Initial residual = 0.00138801, Final residual = 9.44562e-06, No Iterations 5
time step continuity errors : sum local = 2.76181e-06, global = -3.56842e-17, cumulative = 1.10965e-15
smoothSolver:  Solving for nuTilda, Initial residual = 0.00246219, Final residual = 1.18338e-05, No Iterations 8
ExecutionTime = 5.33 s  ClockTime = 5 s

Time = 57

smoothSolver:  Solving for Ux, Initial residual = 0.00231278, Final residual = 9.86727e-06, No Iterations 8
smoothSolver:  Solving for Uy, Initial residual = 0.00134671, Final residual = 6.84401e-06, No Iterations 8
GAMG:  Solving for p, Initial residual = 0.00135064, Final residual = 9.64654e-06, No Iterations 5
time step continuity errors : sum local = 2.82078e-06, global = 1.71262e-17, cumulative = 1.12678e-15
smoothSolver:  Solving for nuTilda, Initial residual = 0.00239939, Final residual = 1.1515e-05, No Iterations 8
ExecutionTime = 5.42 s  ClockTime = 5 s

Time = 58

smoothSolver:  Solving for Ux, Initial residual = 0.00228341, Final residual = 9.73749e-06, No Iterations 8
smoothSolver:  Solving for Uy, Initial residual = 0.00134232, Final residual = 6.80033e-06, No Iterations 8
GAMG:  Solving for p, Initial residual = 0.00129791, Final residual = 9.28376e-06, No Iterations 5
time step continuity errors : sum local = 2.71161e-06, global = -4.12914e-17, cumulative = 1.08549e-15
smoothSolver:  Solving for nuTilda, Initial residual = 0.00233895, Final residual = 1.12101e-05, No Iterations 8
bounding nuTilda, min: -1.91244e-06 max: 0.410089 average: 0.0657996
ExecutionTime = 5.51 s  ClockTime = 5 s

Time = 59

smoothSolver:  Solving for Ux, Initial residual = 0.00225955, Final residual = 9.631e-06, No Iterations 8
smoothSolver:  Solving for Uy, Initial residual = 0.00133419, Final residual = 6.72471e-06, No Iterations 8
GAMG:  Solving for p, Initial residual = 0.00125051, Final residual = 9.04732e-06, No Iterations 5
time step continuity errors : sum local = 2.64324e-06, global = 6.84619e-17, cumulative = 1.15395e-15
smoothSolver:  Solving for nuTilda, Initial residual = 0.00228054, Final residual = 1.09157e-05, No Iterations 8
ExecutionTime = 5.6 s  ClockTime = 5 s

Time = 60

smoothSolver:  Solving for Ux, Initial residual = 0.00223802, Final residual = 9.5279e-06, No Iterations 8
smoothSolver:  Solving for Uy, Initial residual = 0.00132486, Final residual = 6.64594e-06, No Iterations 8
GAMG:  Solving for p, Initial residual = 0.00123255, Final residual = 9.24316e-06, No Iterations 5
time step continuity errors : sum local = 2.70276e-06, global = 2.53747e-17, cumulative = 1.17932e-15
smoothSolver:  Solving for nuTilda, Initial residual = 0.00222428, Final residual = 1.06333e-05, No Iterations 8
ExecutionTime = 5.68 s  ClockTime = 5 s

forces wings output:
    sum of forces:
        pressure : (1.47609 5.16609 -1.28547e-19)
        viscous  : (0.367234 0.0220086 5.35462e-21)
        porous   : (0 0 0)
    sum of moments:
        pressure : (-0.258304 0.0738047 4.68282)
        viscous  : (-0.00110043 0.0183617 -0.0327068)
        porous   : (0 0 0)

Time = 61

smoothSolver:  Solving for Ux, Initial residual = 0.00221551, Final residual = 9.41748e-06, No Iterations 8
smoothSolver:  Solving for Uy, Initial residual = 0.00131761, Final residual = 6.58391e-06, No Iterations 8
GAMG:  Solving for p, Initial residual = 0.00120422, Final residual = 8.85002e-06, No Iterations 5
time step continuity errors : sum local = 2.58694e-06, global = 6.06988e-17, cumulative = 1.24002e-15
smoothSolver:  Solving for nuTilda, Initial residual = 0.00216973, Final residual = 1.03598e-05, No Iterations 8
ExecutionTime = 5.78 s  ClockTime = 5 s

Time = 62

smoothSolver:  Solving for Ux, Initial residual = 0.00219194, Final residual = 9.29989e-06, No Iterations 8
smoothSolver:  Solving for Uy, Initial residual = 0.00131309, Final residual = 6.54194e-06, No Iterations 8
GAMG:  Solving for p, Initial residual = 0.00116403, Final residual = 9.04391e-06, No Iterations 5
time step continuity errors : sum local = 2.64092e-06, global = 4.00749e-17, cumulative = 1.2801e-15
smoothSolver:  Solving for nuTilda, Initial residual = 0.00211706, Final residual = 1.00964e-05, No Iterations 8
ExecutionTime = 5.86 s  ClockTime = 6 s

Time = 63

smoothSolver:  Solving for Ux, Initial residual = 0.00216897, Final residual = 9.18588e-06, No Iterations 8
smoothSolver:  Solving for Uy, Initial residual = 0.00130914, Final residual = 6.50443e-06, No Iterations 8
GAMG:  Solving for p, Initial residual = 0.00114046, Final residual = 9.36522e-06, No Iterations 5
time step continuity errors : sum local = 2.73458e-06, global = -4.03182e-17, cumulative = 1.23978e-15
smoothSolver:  Solving for nuTilda, Initial residual = 0.00206603, Final residual = 9.84131e-06, No Iterations 8
ExecutionTime = 5.95 s  ClockTime = 6 s

Time = 64

smoothSolver:  Solving for Ux, Initial residual = 0.00214793, Final residual = 9.08195e-06, No Iterations 8
smoothSolver:  Solving for Uy, Initial residual = 0.00130382, Final residual = 6.45865e-06, No Iterations 8
GAMG:  Solving for p, Initial residual = 0.00112227, Final residual = 9.08941e-06, No Iterations 5
time step continuity errors : sum local = 2.64549e-06, global = -1.69281e-16, cumulative = 1.0705e-15
smoothSolver:  Solving for nuTilda, Initial residual = 0.00201662, Final residual = 9.59547e-06, No Iterations 8
ExecutionTime = 6.04 s  ClockTime = 6 s

Time = 65

smoothSolver:  Solving for Ux, Initial residual = 0.00212891, Final residual = 8.98804e-06, No Iterations 8
smoothSolver:  Solving for Uy, Initial residual = 0.00129728, Final residual = 6.40393e-06, No Iterations 8
GAMG:  Solving for p, Initial residual = 0.00110279, Final residual = 8.78853e-06, No Iterations 5
time step continuity errors : sum local = 2.55792e-06, global = -1.75683e-16, cumulative = 8.94817e-16
smoothSolver:  Solving for nuTilda, Initial residual = 0.0019687, Final residual = 9.35745e-06, No Iterations 8
ExecutionTime = 6.13 s  ClockTime = 6 s

forces wings output:
    sum of forces:
        pressure : (1.49876 5.15953 -1.2748e-19)
        viscous  : (0.355982 0.0210903 5.80092e-21)
        porous   : (0 0 0)
    sum of moments:
        pressure : (-0.257976 0.0749382 4.72213)
        viscous  : (-0.00105452 0.0177991 -0.0317334)
        porous   : (0 0 0)

Time = 66

smoothSolver:  Solving for Ux, Initial residual = 0.00211095, Final residual = 8.89548e-06, No Iterations 8
smoothSolver:  Solving for Uy, Initial residual = 0.00129041, Final residual = 6.34642e-06, No Iterations 8
GAMG:  Solving for p, Initial residual = 0.00109163, Final residual = 8.82915e-06, No Iterations 5
time step continuity errors : sum local = 2.5705e-06, global = 7.07385e-17, cumulative = 9.65556e-16
smoothSolver:  Solving for nuTilda, Initial residual = 0.00192238, Final residual = 9.12794e-06, No Iterations 8
ExecutionTime = 6.22 s  ClockTime = 6 s

Time = 67

smoothSolver:  Solving for Ux, Initial residual = 0.00209311, Final residual = 8.80089e-06, No Iterations 8
smoothSolver:  Solving for Uy, Initial residual = 0.00128397, Final residual = 6.29108e-06, No Iterations 8
GAMG:  Solving for p, Initial residual = 0.00108254, Final residual = 9.19221e-06, No Iterations 5
time step continuity errors : sum local = 2.68534e-06, global = -1.27322e-16, cumulative = 8.38233e-16
smoothSolver:  Solving for nuTilda, Initial residual = 0.00187751, Final residual = 8.90544e-06, No Iterations 8
ExecutionTime = 6.31 s  ClockTime = 6 s

Time = 68

smoothSolver:  Solving for Ux, Initial residual = 0.00207496, Final residual = 8.70396e-06, No Iterations 8
smoothSolver:  Solving for Uy, Initial residual = 0.00127846, Final residual = 6.23959e-06, No Iterations 8
GAMG:  Solving for p, Initial residual = 0.00106982, Final residual = 8.79459e-06, No Iterations 5
time step continuity errors : sum local = 2.56093e-06, global = 1.00876e-16, cumulative = 9.3911e-16
smoothSolver:  Solving for nuTilda, Initial residual = 0.00183422, Final residual = 8.69073e-06, No Iterations 8
ExecutionTime = 6.39 s  ClockTime = 6 s

Time = 69

smoothSolver:  Solving for Ux, Initial residual = 0.00205758, Final residual = 8.61162e-06, No Iterations 8
smoothSolver:  Solving for Uy, Initial residual = 0.00127279, Final residual = 6.18931e-06, No Iterations 8
GAMG:  Solving for p, Initial residual = 0.00106141, Final residual = 8.73697e-06, No Iterations 5
time step continuity errors : sum local = 2.54417e-06, global = 4.99891e-17, cumulative = 9.89099e-16
smoothSolver:  Solving for nuTilda, Initial residual = 0.00179228, Final residual = 8.48269e-06, No Iterations 8
ExecutionTime = 6.48 s  ClockTime = 6 s

Time = 70

smoothSolver:  Solving for Ux, Initial residual = 0.00204063, Final residual = 8.52144e-06, No Iterations 8
smoothSolver:  Solving for Uy, Initial residual = 0.00126676, Final residual = 6.13648e-06, No Iterations 8
GAMG:  Solving for p, Initial residual = 0.00105321, Final residual = 8.78678e-06, No Iterations 5
time step continuity errors : sum local = 2.55864e-06, global = 3.59339e-16, cumulative = 1.34844e-15
smoothSolver:  Solving for nuTilda, Initial residual = 0.00175169, Final residual = 8.28157e-06, No Iterations 8
ExecutionTime = 6.57 s  ClockTime = 6 s

forces wings output:
    sum of forces:
        pressure : (1.52891 5.13182 -1.26702e-19)
        viscous  : (0.34522 0.020213 6.15389e-21)
        porous   : (0 0 0)
    sum of moments:
        pressure : (-0.256591 0.0764454 4.7672)
        viscous  : (-0.00101065 0.017261 -0.0308016)
        porous   : (0 0 0)

Time = 71

smoothSolver:  Solving for Ux, Initial residual = 0.00202403, Final residual = 8.43394e-06, No Iterations 8
smoothSolver:  Solving for Uy, Initial residual = 0.00126035, Final residual = 6.07937e-06, No Iterations 8
GAMG:  Solving for p, Initial residual = 0.00104283, Final residual = 8.41211e-06, No Iterations 5
time step continuity errors : sum local = 2.45132e-06, global = -1.37517e-17, cumulative = 1.33469e-15
smoothSolver:  Solving for nuTilda, Initial residual = 0.00171235, Final residual = 8.0864e-06, No Iterations 8
ExecutionTime = 6.66 s  ClockTime = 6 s

Time = 72

smoothSolver:  Solving for Ux, Initial residual = 0.002008, Final residual = 8.34888e-06, No Iterations 8
smoothSolver:  Solving for Uy, Initial residual = 0.00125363, Final residual = 6.02009e-06, No Iterations 8
GAMG:  Solving for p, Initial residual = 0.00103589, Final residual = 8.45234e-06, No Iterations 5
time step continuity errors : sum local = 2.46302e-06, global = -3.30118e-18, cumulative = 1.33139e-15
smoothSolver:  Solving for nuTilda, Initial residual = 0.00167432, Final residual = 7.89774e-06, No Iterations 8
ExecutionTime = 6.75 s  ClockTime = 6 s

Time = 73

smoothSolver:  Solving for Ux, Initial residual = 0.00199249, Final residual = 8.26525e-06, No Iterations 8
smoothSolver:  Solving for Uy, Initial residual = 0.00124697, Final residual = 5.96234e-06, No Iterations 8
GAMG:  Solving for p, Initial residual = 0.00102997, Final residual = 8.89044e-06, No Iterations 5
time step continuity errors : sum local = 2.59778e-06, global = -1.82125e-16, cumulative = 1.14926e-15
smoothSolver:  Solving for nuTilda, Initial residual = 0.00163746, Final residual = 7.71482e-06, No Iterations 8
ExecutionTime = 6.84 s  ClockTime = 7 s

Time = 74

smoothSolver:  Solving for Ux, Initial residual = 0.00197727, Final residual = 8.18214e-06, No Iterations 8
smoothSolver:  Solving for Uy, Initial residual = 0.00124039, Final residual = 5.90648e-06, No Iterations 8
GAMG:  Solving for p, Initial residual = 0.00102803, Final residual = 9.15772e-06, No Iterations 5
time step continuity errors : sum local = 2.67652e-06, global = -6.40648e-18, cumulative = 1.14285e-15
smoothSolver:  Solving for nuTilda, Initial residual = 0.00160172, Final residual = 7.53783e-06, No Iterations 8
ExecutionTime = 6.93 s  ClockTime = 7 s

Time = 75

smoothSolver:  Solving for Ux, Initial residual = 0.00196258, Final residual = 8.10202e-06, No Iterations 8
smoothSolver:  Solving for Uy, Initial residual = 0.00123358, Final residual = 5.85178e-06, No Iterations 8
GAMG:  Solving for p, Initial residual = 0.00102117, Final residual = 9.14707e-06, No Iterations 5
time step continuity errors : sum local = 2.67369e-06, global = -1.55793e-16, cumulative = 9.87061e-16
smoothSolver:  Solving for nuTilda, Initial residual = 0.00156702, Final residual = 7.36594e-06, No Iterations 8
ExecutionTime = 7.01 s  ClockTime = 7 s

forces wings output:
    sum of forces:
        pressure : (1.55993 5.11223 -1.26522e-19)
        viscous  : (0.335017 0.0193937 6.5185e-21)
        porous   : (0 0 0)
    sum of moments:
        pressure : (-0.255611 0.0779967 4.81698)
        viscous  : (-0.000969686 0.0167508 -0.0299129)
        porous   : (0 0 0)

Time = 76

smoothSolver:  Solving for Ux, Initial residual = 0.00194828, Final residual = 8.02454e-06, No Iterations 8
smoothSolver:  Solving for Uy, Initial residual = 0.00122651, Final residual = 5.79678e-06, No Iterations 8
GAMG:  Solving for p, Initial residual = 0.00101869, Final residual = 8.57266e-06, No Iterations 5
time step continuity errors : sum local = 2.4988e-06, global = -3.51016e-16, cumulative = 6.36045e-16
smoothSolver:  Solving for nuTilda, Initial residual = 0.00153332, Final residual = 7.19911e-06, No Iterations 8
ExecutionTime = 7.1 s  ClockTime = 7 s

Time = 77

smoothSolver:  Solving for Ux, Initial residual = 0.00193425, Final residual = 7.94971e-06, No Iterations 8
smoothSolver:  Solving for Uy, Initial residual = 0.00121928, Final residual = 5.74178e-06, No Iterations 8
GAMG:  Solving for p, Initial residual = 0.00101345, Final residual = 8.30931e-06, No Iterations 5
time step continuity errors : sum local = 2.42204e-06, global = 1.69968e-16, cumulative = 8.06013e-16
smoothSolver:  Solving for nuTilda, Initial residual = 0.0015005, Final residual = 7.03629e-06, No Iterations 8
ExecutionTime = 7.19 s  ClockTime = 7 s

Time = 78

smoothSolver:  Solving for Ux, Initial residual = 0.00191996, Final residual = 7.87376e-06, No Iterations 8
smoothSolver:  Solving for Uy, Initial residual = 0.00121231, Final residual = 5.68602e-06, No Iterations 8
GAMG:  Solving for p, Initial residual = 0.0010098, Final residual = 8.28879e-06, No Iterations 5
time step continuity errors : sum local = 2.41553e-06, global = -1.67118e-17, cumulative = 7.89301e-16
smoothSolver:  Solving for nuTilda, Initial residual = 0.00146864, Final residual = 6.87818e-06, No Iterations 8
ExecutionTime = 7.27 s  ClockTime = 7 s

Time = 79

smoothSolver:  Solving for Ux, Initial residual = 0.00190561, Final residual = 7.798e-06, No Iterations 8
smoothSolver:  Solving for Uy, Initial residual = 0.00120544, Final residual = 5.63054e-06, No Iterations 8
GAMG:  Solving for p, Initial residual = 0.00100393, Final residual = 8.22719e-06, No Iterations 5
time step continuity errors : sum local = 2.39877e-06, global = -3.00043e-16, cumulative = 4.89258e-16
smoothSolver:  Solving for nuTilda, Initial residual = 0.00143763, Final residual = 6.72453e-06, No Iterations 8
ExecutionTime = 7.36 s  ClockTime = 7 s

Time = 80

smoothSolver:  Solving for Ux, Initial residual = 0.00189184, Final residual = 7.72497e-06, No Iterations 8
smoothSolver:  Solving for Uy, Initial residual = 0.00119828, Final residual = 5.57472e-06, No Iterations 8
GAMG:  Solving for p, Initial residual = 0.00099996, Final residual = 8.37707e-06, No Iterations 5
time step continuity errors : sum local = 2.44285e-06, global = 2.50916e-16, cumulative = 7.40175e-16
smoothSolver:  Solving for nuTilda, Initial residual = 0.00140747, Final residual = 6.57529e-06, No Iterations 8
ExecutionTime = 7.45 s  ClockTime = 7 s

forces wings output:
    sum of forces:
        pressure : (1.58784 5.10937 -1.27211e-19)
        viscous  : (0.325297 0.0186289 6.6962e-21)
        porous   : (0 0 0)
    sum of moments:
        pressure : (-0.255468 0.0793919 4.86735)
        viscous  : (-0.000931445 0.0162648 -0.0290667)
        porous   : (0 0 0)

Time = 81

smoothSolver:  Solving for Ux, Initial residual = 0.00187847, Final residual = 7.65426e-06, No Iterations 8
smoothSolver:  Solving for Uy, Initial residual = 0.00119082, Final residual = 5.51895e-06, No Iterations 8
GAMG:  Solving for p, Initial residual = 0.000995211, Final residual = 8.31126e-06, No Iterations 5
time step continuity errors : sum local = 2.42436e-06, global = -6.49215e-18, cumulative = 7.33683e-16
smoothSolver:  Solving for nuTilda, Initial residual = 0.00137814, Final residual = 6.42993e-06, No Iterations 8
ExecutionTime = 7.54 s  ClockTime = 7 s

Time = 82

smoothSolver:  Solving for Ux, Initial residual = 0.00186532, Final residual = 7.58474e-06, No Iterations 8
smoothSolver:  Solving for Uy, Initial residual = 0.00118302, Final residual = 5.46243e-06, No Iterations 8
GAMG:  Solving for p, Initial residual = 0.000992437, Final residual = 8.35784e-06, No Iterations 5
time step continuity errors : sum local = 2.43718e-06, global = -1.32731e-16, cumulative = 6.00952e-16
smoothSolver:  Solving for nuTilda, Initial residual = 0.00134961, Final residual = 6.28869e-06, No Iterations 8
ExecutionTime = 7.63 s  ClockTime = 7 s

Time = 83

smoothSolver:  Solving for Ux, Initial residual = 0.00185202, Final residual = 7.5151e-06, No Iterations 8
smoothSolver:  Solving for Uy, Initial residual = 0.00117526, Final residual = 5.40587e-06, No Iterations 8
GAMG:  Solving for p, Initial residual = 0.000986937, Final residual = 8.24056e-06, No Iterations 5
time step continuity errors : sum local = 2.40318e-06, global = -2.41339e-16, cumulative = 3.59613e-16
smoothSolver:  Solving for nuTilda, Initial residual = 0.00132189, Final residual = 6.15154e-06, No Iterations 8
ExecutionTime = 7.72 s  ClockTime = 7 s

Time = 84

smoothSolver:  Solving for Ux, Initial residual = 0.00183867, Final residual = 7.4459e-06, No Iterations 8
smoothSolver:  Solving for Uy, Initial residual = 0.00116754, Final residual = 5.34973e-06, No Iterations 8
GAMG:  Solving for p, Initial residual = 0.000983051, Final residual = 8.29455e-06, No Iterations 5
time step continuity errors : sum local = 2.41861e-06, global = -6.99331e-17, cumulative = 2.89679e-16
smoothSolver:  Solving for nuTilda, Initial residual = 0.00129489, Final residual = 6.01858e-06, No Iterations 8
ExecutionTime = 7.81 s  ClockTime = 7 s

Time = 85

smoothSolver:  Solving for Ux, Initial residual = 0.00182538, Final residual = 7.37752e-06, No Iterations 8
smoothSolver:  Solving for Uy, Initial residual = 0.00115987, Final residual = 5.29411e-06, No Iterations 8
GAMG:  Solving for p, Initial residual = 0.000976537, Final residual = 8.20425e-06, No Iterations 5
time step continuity errors : sum local = 2.39288e-06, global = 6.44423e-17, cumulative = 3.54122e-16
smoothSolver:  Solving for nuTilda, Initial residual = 0.00126865, Final residual = 5.88931e-06, No Iterations 8
ExecutionTime = 7.9 s  ClockTime = 8 s

forces wings output:
    sum of forces:
        pressure : (1.61453 5.11197 -1.285e-19)
        viscous  : (0.316143 0.0179088 6.93111e-21)
        porous   : (0 0 0)
    sum of moments:
        pressure : (-0.255598 0.0807267 4.91757)
        viscous  : (-0.000895439 0.0158072 -0.028266)
        porous   : (0 0 0)

Time = 86

smoothSolver:  Solving for Ux, Initial residual = 0.00181231, Final residual = 7.31062e-06, No Iterations 8
smoothSolver:  Solving for Uy, Initial residual = 0.00115201, Final residual = 5.23819e-06, No Iterations 8
GAMG:  Solving for p, Initial residual = 0.000972167, Final residual = 8.24413e-06, No Iterations 5
time step continuity errors : sum local = 2.4043e-06, global = 1.22214e-16, cumulative = 4.76336e-16
smoothSolver:  Solving for nuTilda, Initial residual = 0.00124313, Final residual = 5.76372e-06, No Iterations 8
ExecutionTime = 7.99 s  ClockTime = 8 s

Time = 87

smoothSolver:  Solving for Ux, Initial residual = 0.00179939, Final residual = 7.24497e-06, No Iterations 8
smoothSolver:  Solving for Uy, Initial residual = 0.00114396, Final residual = 5.18277e-06, No Iterations 8
GAMG:  Solving for p, Initial residual = 0.000965, Final residual = 8.12393e-06, No Iterations 5
time step continuity errors : sum local = 2.36957e-06, global = -2.37074e-16, cumulative = 2.39262e-16
smoothSolver:  Solving for nuTilda, Initial residual = 0.00121832, Final residual = 5.64149e-06, No Iterations 8
ExecutionTime = 8.08 s  ClockTime = 8 s

Time = 88

smoothSolver:  Solving for Ux, Initial residual = 0.0017866, Final residual = 7.18013e-06, No Iterations 8
smoothSolver:  Solving for Uy, Initial residual = 0.00113564, Final residual = 5.12716e-06, No Iterations 8
GAMG:  Solving for p, Initial residual = 0.000960546, Final residual = 8.12427e-06, No Iterations 5
time step continuity errors : sum local = 2.36923e-06, global = 4.76683e-17, cumulative = 2.86931e-16
smoothSolver:  Solving for nuTilda, Initial residual = 0.00119418, Final residual = 5.52275e-06, No Iterations 8
ExecutionTime = 8.16 s  ClockTime = 8 s

Time = 89

smoothSolver:  Solving for Ux, Initial residual = 0.00177388, Final residual = 7.11565e-06, No Iterations 8
smoothSolver:  Solving for Uy, Initial residual = 0.00112725, Final residual = 5.07209e-06, No Iterations 8
GAMG:  Solving for p, Initial residual = 0.000952166, Final residual = 7.99915e-06, No Iterations 5
time step continuity errors : sum local = 2.3331e-06, global = -4.3739e-17, cumulative = 2.43191e-16
smoothSolver:  Solving for nuTilda, Initial residual = 0.0011707, Final residual = 5.40718e-06, No Iterations 8
ExecutionTime = 8.25 s  ClockTime = 8 s

Time = 90

smoothSolver:  Solving for Ux, Initial residual = 0.00176114, Final residual = 7.05183e-06, No Iterations 8
smoothSolver:  Solving for Uy, Initial residual = 0.00111879, Final residual = 5.01725e-06, No Iterations 8
GAMG:  Solving for p, Initial residual = 0.000946726, Final residual = 7.98695e-06, No Iterations 5
time step continuity errors : sum local = 2.32934e-06, global = 1.68984e-16, cumulative = 4.12175e-16
smoothSolver:  Solving for nuTilda, Initial residual = 0.00114784, Final residual = 5.29485e-06, No Iterations 8
ExecutionTime = 8.34 s  ClockTime = 8 s

forces wings output:
    sum of forces:
        pressure : (1.63876 5.11819 -1.30364e-19)
        viscous  : (0.30787 0.0172508 7.15791e-21)
        porous   : (0 0 0)
    sum of moments:
        pressure : (-0.255909 0.0819382 4.96461)
        viscous  : (-0.000862541 0.0153935 -0.0275442)
        porous   : (0 0 0)

Time = 91

smoothSolver:  Solving for Ux, Initial residual = 0.00174842, Final residual = 6.98841e-06, No Iterations 8
smoothSolver:  Solving for Uy, Initial residual = 0.00111034, Final residual = 4.96303e-06, No Iterations 8
GAMG:  Solving for p, Initial residual = 0.000937139, Final residual = 7.85826e-06, No Iterations 5
time step continuity errors : sum local = 2.29228e-06, global = 6.9083e-17, cumulative = 4.81258e-16
smoothSolver:  Solving for nuTilda, Initial residual = 0.0011256, Final residual = 5.18545e-06, No Iterations 8
ExecutionTime = 8.44 s  ClockTime = 8 s

Time = 92

smoothSolver:  Solving for Ux, Initial residual = 0.00173575, Final residual = 6.92552e-06, No Iterations 8
smoothSolver:  Solving for Uy, Initial residual = 0.00110173, Final residual = 4.90873e-06, No Iterations 8
GAMG:  Solving for p, Initial residual = 0.000930242, Final residual = 7.8443e-06, No Iterations 5
time step continuity errors : sum local = 2.28812e-06, global = -1.36398e-17, cumulative = 4.67619e-16
smoothSolver:  Solving for nuTilda, Initial residual = 0.00110394, Final residual = 5.079e-06, No Iterations 8
ExecutionTime = 8.52 s  ClockTime = 8 s

Time = 93

smoothSolver:  Solving for Ux, Initial residual = 0.00172312, Final residual = 6.86308e-06, No Iterations 8
smoothSolver:  Solving for Uy, Initial residual = 0.00109301, Final residual = 4.85486e-06, No Iterations 8
GAMG:  Solving for p, Initial residual = 0.000919797, Final residual = 7.71565e-06, No Iterations 5
time step continuity errors : sum local = 2.25098e-06, global = -2.29345e-16, cumulative = 2.38274e-16
smoothSolver:  Solving for nuTilda, Initial residual = 0.00108282, Final residual = 4.97519e-06, No Iterations 8
ExecutionTime = 8.61 s  ClockTime = 8 s

Time = 94

smoothSolver:  Solving for Ux, Initial residual = 0.00171055, Final residual = 6.80114e-06, No Iterations 8
smoothSolver:  Solving for Uy, Initial residual = 0.0010841, Final residual = 4.80105e-06, No Iterations 8
GAMG:  Solving for p, Initial residual = 0.000912346, Final residual = 7.70909e-06, No Iterations 5
time step continuity errors : sum local = 2.24883e-06, global = -8.25523e-17, cumulative = 1.55722e-16
smoothSolver:  Solving for nuTilda, Initial residual = 0.00106221, Final residual = 4.87394e-06, No Iterations 8
ExecutionTime = 8.7 s  ClockTime = 8 s

Time = 95

smoothSolver:  Solving for Ux, Initial residual = 0.00169798, Final residual = 6.73956e-06, No Iterations 8
smoothSolver:  Solving for Uy, Initial residual = 0.00107513, Final residual = 4.74744e-06, No Iterations 8
GAMG:  Solving for p, Initial residual = 0.000900514, Final residual = 7.57285e-06, No Iterations 5
time step continuity errors : sum local = 2.20925e-06, global = 4.98722e-17, cumulative = 2.05594e-16
smoothSolver:  Solving for nuTilda, Initial residual = 0.00104206, Final residual = 4.77486e-06, No Iterations 8
ExecutionTime = 8.79 s  ClockTime = 8 s

forces wings output:
    sum of forces:
        pressure : (1.66088 5.12513 -1.32717e-19)
        viscous  : (0.300577 0.0166515 7.56885e-21)
        porous   : (0 0 0)
    sum of moments:
        pressure : (-0.256256 0.0830439 5.00802)
        viscous  : (-0.000832574 0.0150289 -0.0269065)
        porous   : (0 0 0)

Time = 96

smoothSolver:  Solving for Ux, Initial residual = 0.00168543, Final residual = 6.67853e-06, No Iterations 8
smoothSolver:  Solving for Uy, Initial residual = 0.00106606, Final residual = 4.69377e-06, No Iterations 8
GAMG:  Solving for p, Initial residual = 0.00089222, Final residual = 7.5686e-06, No Iterations 5
time step continuity errors : sum local = 2.2076e-06, global = -1.12396e-16, cumulative = 9.31982e-17
smoothSolver:  Solving for nuTilda, Initial residual = 0.00102236, Final residual = 4.67803e-06, No Iterations 8
ExecutionTime = 8.88 s  ClockTime = 9 s

Time = 97

smoothSolver:  Solving for Ux, Initial residual = 0.00167288, Final residual = 6.6175e-06, No Iterations 8
smoothSolver:  Solving for Uy, Initial residual = 0.00105698, Final residual = 4.6412e-06, No Iterations 8
GAMG:  Solving for p, Initial residual = 0.000879709, Final residual = 7.37447e-06, No Iterations 5
time step continuity errors : sum local = 2.15122e-06, global = -2.57219e-16, cumulative = -1.6402e-16
smoothSolver:  Solving for nuTilda, Initial residual = 0.00100312, Final residual = 4.58331e-06, No Iterations 8
ExecutionTime = 8.97 s  ClockTime = 9 s

Time = 98

smoothSolver:  Solving for Ux, Initial residual = 0.00166036, Final residual = 6.55681e-06, No Iterations 8
smoothSolver:  Solving for Uy, Initial residual = 0.0010478, Final residual = 4.58898e-06, No Iterations 8
GAMG:  Solving for p, Initial residual = 0.000870482, Final residual = 7.26594e-06, No Iterations 5
time step continuity errors : sum local = 2.11934e-06, global = 1.29283e-16, cumulative = -3.4737e-17
smoothSolver:  Solving for nuTilda, Initial residual = 0.000984339, Final residual = 4.49091e-06, No Iterations 8
ExecutionTime = 9.05 s  ClockTime = 9 s

Time = 99

smoothSolver:  Solving for Ux, Initial residual = 0.00164781, Final residual = 6.49629e-06, No Iterations 8
smoothSolver:  Solving for Uy, Initial residual = 0.00103857, Final residual = 4.53775e-06, No Iterations 8
GAMG:  Solving for p, Initial residual = 0.000857197, Final residual = 7.04934e-06, No Iterations 5
time step continuity errors : sum local = 2.0563e-06, global = 7.76473e-17, cumulative = 4.29103e-17
smoothSolver:  Solving for nuTilda, Initial residual = 0.000966021, Final residual = 4.40076e-06, No Iterations 8
ExecutionTime = 9.14 s  ClockTime = 9 s

Time = 100

smoothSolver:  Solving for Ux, Initial residual = 0.00163525, Final residual = 6.43583e-06, No Iterations 8
smoothSolver:  Solving for Uy, Initial residual = 0.00102932, Final residual = 4.48672e-06, No Iterations 8
GAMG:  Solving for p, Initial residual = 0.000847864, Final residual = 7.3189e-06, No Iterations 5
time step continuity errors : sum local = 2.14632e-06, global = 1.05431e-16, cumulative = 1.48341e-16
smoothSolver:  Solving for nuTilda, Initial residual = 0.000948155, Final residual = 4.31303e-06, No Iterations 8
ExecutionTime = 9.23 s  ClockTime = 9 s

forces wings output:
    sum of forces:
        pressure : (1.67976 5.1333 -1.3568e-19)
        viscous  : (0.293911 0.016108 7.79043e-21)
        porous   : (0 0 0)
    sum of moments:
        pressure : (-0.256665 0.0839881 5.04595)
        viscous  : (-0.000805399 0.0146955 -0.0263232)
        porous   : (0 0 0)

Time = 101

smoothSolver:  Solving for Ux, Initial residual = 0.00162268, Final residual = 6.37492e-06, No Iterations 8
smoothSolver:  Solving for Uy, Initial residual = 0.00102011, Final residual = 4.43633e-06, No Iterations 8
GAMG:  Solving for p, Initial residual = 0.000833749, Final residual = 6.88308e-06, No Iterations 5
time step continuity errors : sum local = 2.01003e-06, global = -2.34768e-16, cumulative = -8.64263e-17
smoothSolver:  Solving for nuTilda, Initial residual = 0.000930728, Final residual = 4.22753e-06, No Iterations 8
ExecutionTime = 9.32 s  ClockTime = 9 s

Time = 102

smoothSolver:  Solving for Ux, Initial residual = 0.00161022, Final residual = 6.3151e-06, No Iterations 8
smoothSolver:  Solving for Uy, Initial residual = 0.0010107, Final residual = 4.38676e-06, No Iterations 8
GAMG:  Solving for p, Initial residual = 0.000824378, Final residual = 6.75002e-06, No Iterations 5
time step continuity errors : sum local = 1.96975e-06, global = 1.4221e-16, cumulative = 5.57839e-17
smoothSolver:  Solving for nuTilda, Initial residual = 0.000913694, Final residual = 4.14426e-06, No Iterations 8
ExecutionTime = 9.41 s  ClockTime = 9 s

Time = 103

smoothSolver:  Solving for Ux, Initial residual = 0.00159776, Final residual = 6.25488e-06, No Iterations 8
smoothSolver:  Solving for Uy, Initial residual = 0.00100145, Final residual = 4.33766e-06, No Iterations 8
GAMG:  Solving for p, Initial residual = 0.000810721, Final residual = 6.76468e-06, No Iterations 5
time step continuity errors : sum local = 1.98423e-06, global = 1.67783e-16, cumulative = 2.23567e-16
smoothSolver:  Solving for nuTilda, Initial residual = 0.000897058, Final residual = 4.06297e-06, No Iterations 8
ExecutionTime = 9.49 s  ClockTime = 9 s

Time = 104

smoothSolver:  Solving for Ux, Initial residual = 0.00158514, Final residual = 6.19382e-06, No Iterations 8
smoothSolver:  Solving for Uy, Initial residual = 0.000992264, Final residual = 4.28887e-06, No Iterations 8
GAMG:  Solving for p, Initial residual = 0.000800113, Final residual = 6.54957e-06, No Iterations 5
time step continuity errors : sum local = 1.91154e-06, global = -1.23712e-16, cumulative = 9.98552e-17
smoothSolver:  Solving for nuTilda, Initial residual = 0.000880782, Final residual = 3.98353e-06, No Iterations 8
ExecutionTime = 9.58 s  ClockTime = 9 s

Time = 105

smoothSolver:  Solving for Ux, Initial residual = 0.00157275, Final residual = 6.13368e-06, No Iterations 8
smoothSolver:  Solving for Uy, Initial residual = 0.000982984, Final residual = 4.2411e-06, No Iterations 8
GAMG:  Solving for p, Initial residual = 0.000786536, Final residual = 6.65355e-06, No Iterations 5
time step continuity errors : sum local = 1.9525e-06, global = -9.16129e-17, cumulative = 8.24225e-18
smoothSolver:  Solving for nuTilda, Initial residual = 0.000864839, Final residual = 3.90565e-06, No Iterations 8
ExecutionTime = 9.67 s  ClockTime = 9 s

forces wings output:
    sum of forces:
        pressure : (1.69429 5.1459 -1.38967e-19)
        viscous  : (0.287684 0.0156003 7.77921e-21)
        porous   : (0 0 0)
    sum of moments:
        pressure : (-0.257295 0.0847146 5.07752)
        viscous  : (-0.000780016 0.0143842 -0.0257753)
        porous   : (0 0 0)

Time = 106

smoothSolver:  Solving for Ux, Initial residual = 0.00156039, Final residual = 6.07307e-06, No Iterations 8
smoothSolver:  Solving for Uy, Initial residual = 0.000973705, Final residual = 4.19375e-06, No Iterations 8
GAMG:  Solving for p, Initial residual = 0.000776098, Final residual = 6.33983e-06, No Iterations 5
time step continuity errors : sum local = 1.85093e-06, global = 8.54192e-17, cumulative = 9.36615e-17
smoothSolver:  Solving for nuTilda, Initial residual = 0.000849214, Final residual = 3.82945e-06, No Iterations 8
ExecutionTime = 9.77 s  ClockTime = 9 s

Time = 107

smoothSolver:  Solving for Ux, Initial residual = 0.00154812, Final residual = 6.01311e-06, No Iterations 8
smoothSolver:  Solving for Uy, Initial residual = 0.000964382, Final residual = 4.14746e-06, No Iterations 8
GAMG:  Solving for p, Initial residual = 0.00076293, Final residual = 6.30234e-06, No Iterations 5
time step continuity errors : sum local = 1.84979e-06, global = 1.14854e-17, cumulative = 1.05147e-16
smoothSolver:  Solving for nuTilda, Initial residual = 0.00083393, Final residual = 3.75494e-06, No Iterations 8
ExecutionTime = 9.86 s  ClockTime = 10 s

Time = 108

smoothSolver:  Solving for Ux, Initial residual = 0.0015358, Final residual = 5.95242e-06, No Iterations 8
smoothSolver:  Solving for Uy, Initial residual = 0.000955173, Final residual = 4.10134e-06, No Iterations 8
GAMG:  Solving for p, Initial residual = 0.000753196, Final residual = 6.32365e-06, No Iterations 5
time step continuity errors : sum local = 1.85647e-06, global = 8.95436e-17, cumulative = 1.94691e-16
smoothSolver:  Solving for nuTilda, Initial residual = 0.00081899, Final residual = 3.68229e-06, No Iterations 8
ExecutionTime = 9.95 s  ClockTime = 10 s

Time = 109

smoothSolver:  Solving for Ux, Initial residual = 0.00152349, Final residual = 5.89174e-06, No Iterations 8
smoothSolver:  Solving for Uy, Initial residual = 0.000945991, Final residual = 4.05592e-06, No Iterations 8
GAMG:  Solving for p, Initial residual = 0.000740419, Final residual = 6.25235e-06, No Iterations 5
time step continuity errors : sum local = 1.8362e-06, global = 2.794e-16, cumulative = 4.74091e-16
smoothSolver:  Solving for nuTilda, Initial residual = 0.000804397, Final residual = 3.61135e-06, No Iterations 8
ExecutionTime = 10.04 s  ClockTime = 10 s

Time = 110

smoothSolver:  Solving for Ux, Initial residual = 0.00151115, Final residual = 5.83105e-06, No Iterations 8
smoothSolver:  Solving for Uy, Initial residual = 0.000936846, Final residual = 4.01116e-06, No Iterations 8
GAMG:  Solving for p, Initial residual = 0.000731753, Final residual = 6.22019e-06, No Iterations 5
time step continuity errors : sum local = 1.82718e-06, global = 8.0007e-17, cumulative = 5.54098e-16
smoothSolver:  Solving for nuTilda, Initial residual = 0.000790072, Final residual = 3.54209e-06, No Iterations 8
ExecutionTime = 10.13 s  ClockTime = 10 s

forces wings output:
    sum of forces:
        pressure : (1.70503 5.15822 -1.42578e-19)
        viscous  : (0.281884 0.0151281 7.5478e-21)
        porous   : (0 0 0)
    sum of moments:
        pressure : (-0.257911 0.0852513 5.10199)
        viscous  : (-0.000756403 0.0140942 -0.0252661)
        porous   : (0 0 0)

Time = 111

smoothSolver:  Solving for Ux, Initial residual = 0.00149886, Final residual = 5.77031e-06, No Iterations 8
smoothSolver:  Solving for Uy, Initial residual = 0.000927732, Final residual = 3.96743e-06, No Iterations 8
GAMG:  Solving for p, Initial residual = 0.000720025, Final residual = 5.97987e-06, No Iterations 5
time step continuity errors : sum local = 1.75674e-06, global = -7.99298e-17, cumulative = 4.74168e-16
smoothSolver:  Solving for nuTilda, Initial residual = 0.000775988, Final residual = 3.47428e-06, No Iterations 8
ExecutionTime = 10.22 s  ClockTime = 10 s

Time = 112

smoothSolver:  Solving for Ux, Initial residual = 0.00148651, Final residual = 5.70964e-06, No Iterations 8
smoothSolver:  Solving for Uy, Initial residual = 0.000918689, Final residual = 3.92427e-06, No Iterations 8
GAMG:  Solving for p, Initial residual = 0.000711929, Final residual = 5.80639e-06, No Iterations 5
time step continuity errors : sum local = 1.70577e-06, global = -8.47909e-17, cumulative = 3.89377e-16
smoothSolver:  Solving for nuTilda, Initial residual = 0.000762169, Final residual = 3.40803e-06, No Iterations 8
ExecutionTime = 10.31 s  ClockTime = 10 s

Time = 113

smoothSolver:  Solving for Ux, Initial residual = 0.00147419, Final residual = 5.64873e-06, No Iterations 8
smoothSolver:  Solving for Uy, Initial residual = 0.000909761, Final residual = 3.88172e-06, No Iterations 8
GAMG:  Solving for p, Initial residual = 0.000700387, Final residual = 5.53745e-06, No Iterations 5
time step continuity errors : sum local = 1.62683e-06, global = 2.16713e-17, cumulative = 4.11048e-16
smoothSolver:  Solving for nuTilda, Initial residual = 0.000748678, Final residual = 3.34333e-06, No Iterations 8
ExecutionTime = 10.39 s  ClockTime = 10 s

Time = 114

smoothSolver:  Solving for Ux, Initial residual = 0.00146183, Final residual = 5.58762e-06, No Iterations 8
smoothSolver:  Solving for Uy, Initial residual = 0.000900951, Final residual = 3.83974e-06, No Iterations 8
GAMG:  Solving for p, Initial residual = 0.000692983, Final residual = 5.41532e-06, No Iterations 5
time step continuity errors : sum local = 1.59101e-06, global = -4.38353e-17, cumulative = 3.67213e-16
smoothSolver:  Solving for nuTilda, Initial residual = 0.000735498, Final residual = 3.28017e-06, No Iterations 8
ExecutionTime = 10.48 s  ClockTime = 10 s

Time = 115

smoothSolver:  Solving for Ux, Initial residual = 0.0014495, Final residual = 5.52627e-06, No Iterations 8
smoothSolver:  Solving for Uy, Initial residual = 0.000892212, Final residual = 3.79857e-06, No Iterations 8
GAMG:  Solving for p, Initial residual = 0.00068244, Final residual = 5.2007e-06, No Iterations 5
time step continuity errors : sum local = 1.52821e-06, global = -4.72744e-17, cumulative = 3.19939e-16
smoothSolver:  Solving for nuTilda, Initial residual = 0.000722621, Final residual = 3.21834e-06, No Iterations 8
ExecutionTime = 10.57 s  ClockTime = 10 s

forces wings output:
    sum of forces:
        pressure : (1.71217 5.16748 -1.46337e-19)
        viscous  : (0.276597 0.0146846 7.18733e-21)
        porous   : (0 0 0)
    sum of moments:
        pressure : (-0.258374 0.0856083 5.11867)
        viscous  : (-0.000734228 0.0138299 -0.0248001)
        porous   : (0 0 0)

Time = 116

smoothSolver:  Solving for Ux, Initial residual = 0.00143716, Final residual = 5.4647e-06, No Iterations 8
smoothSolver:  Solving for Uy, Initial residual = 0.000883507, Final residual = 3.75823e-06, No Iterations 8
GAMG:  Solving for p, Initial residual = 0.00067583, Final residual = 5.09209e-06, No Iterations 5
time step continuity errors : sum local = 1.49645e-06, global = 4.19969e-17, cumulative = 3.61936e-16
smoothSolver:  Solving for nuTilda, Initial residual = 0.000709998, Final residual = 3.15782e-06, No Iterations 8
ExecutionTime = 10.66 s  ClockTime = 10 s

Time = 117

smoothSolver:  Solving for Ux, Initial residual = 0.00142482, Final residual = 5.40309e-06, No Iterations 8
smoothSolver:  Solving for Uy, Initial residual = 0.000874874, Final residual = 3.71869e-06, No Iterations 8
GAMG:  Solving for p, Initial residual = 0.000666044, Final residual = 4.85359e-06, No Iterations 5
time step continuity errors : sum local = 1.4266e-06, global = 5.08968e-17, cumulative = 4.12832e-16
smoothSolver:  Solving for nuTilda, Initial residual = 0.000697604, Final residual = 3.0985e-06, No Iterations 8
ExecutionTime = 10.75 s  ClockTime = 10 s

Time = 118

smoothSolver:  Solving for Ux, Initial residual = 0.00141239, Final residual = 5.34136e-06, No Iterations 8
smoothSolver:  Solving for Uy, Initial residual = 0.000866354, Final residual = 3.67988e-06, No Iterations 8
GAMG:  Solving for p, Initial residual = 0.000659996, Final residual = 4.71205e-06, No Iterations 5
time step continuity errors : sum local = 1.38506e-06, global = 3.181e-18, cumulative = 4.16013e-16
smoothSolver:  Solving for nuTilda, Initial residual = 0.00068546, Final residual = 3.0404e-06, No Iterations 8
ExecutionTime = 10.83 s  ClockTime = 10 s

Time = 119

smoothSolver:  Solving for Ux, Initial residual = 0.00139994, Final residual = 5.27953e-06, No Iterations 8
smoothSolver:  Solving for Uy, Initial residual = 0.000857988, Final residual = 3.64171e-06, No Iterations 8
GAMG:  Solving for p, Initial residual = 0.000651091, Final residual = 4.46399e-06, No Iterations 5
time step continuity errors : sum local = 1.31236e-06, global = 1.72657e-18, cumulative = 4.1774e-16
smoothSolver:  Solving for nuTilda, Initial residual = 0.00067359, Final residual = 2.98341e-06, No Iterations 8
ExecutionTime = 10.92 s  ClockTime = 11 s

Time = 120

smoothSolver:  Solving for Ux, Initial residual = 0.00138739, Final residual = 5.21745e-06, No Iterations 8
smoothSolver:  Solving for Uy, Initial residual = 0.000849728, Final residual = 3.60437e-06, No Iterations 8
GAMG:  Solving for p, Initial residual = 0.00064638, Final residual = 4.22407e-06, No Iterations 5
time step continuity errors : sum local = 1.23984e-06, global = -2.24724e-17, cumulative = 3.95268e-16
smoothSolver:  Solving for nuTilda, Initial residual = 0.00066196, Final residual = 2.92758e-06, No Iterations 8
ExecutionTime = 11.01 s  ClockTime = 11 s

forces wings output:
    sum of forces:
        pressure : (1.71573 5.17389 -1.5009e-19)
        viscous  : (0.271733 0.0142776 6.75927e-21)
        porous   : (0 0 0)
    sum of moments:
        pressure : (-0.258695 0.0857864 5.12768)
        viscous  : (-0.000713882 0.0135866 -0.0243717)
        porous   : (0 0 0)

Time = 121

smoothSolver:  Solving for Ux, Initial residual = 0.00137479, Final residual = 5.15531e-06, No Iterations 8
smoothSolver:  Solving for Uy, Initial residual = 0.000841611, Final residual = 3.56819e-06, No Iterations 8
GAMG:  Solving for p, Initial residual = 0.00063863, Final residual = 4.07251e-06, No Iterations 5
[...]
GAMG:  Solving for p, Initial residual = 4.47081e-06, Final residual = 5.96031e-07, No Iterations 2
time step continuity errors : sum local = 1.75743e-07, global = 1.13019e-16, cumulative = 7.71711e-14
smoothSolver:  Solving for nuTilda, Initial residual = 9.50166e-09, Final residual = 9.50166e-09, No Iterations 0
ExecutionTime = 377.82 s  ClockTime = 378 s

Time = 4972

smoothSolver:  Solving for Ux, Initial residual = 1.78393e-07, Final residual = 8.95601e-09, No Iterations 4
smoothSolver:  Solving for Uy, Initial residual = 1.17146e-06, Final residual = 4.24044e-09, No Iterations 8
GAMG:  Solving for p, Initial residual = 6.56984e-06, Final residual = 5.78778e-07, No Iterations 2
time step continuity errors : sum local = 1.69377e-07, global = 2.77774e-17, cumulative = 7.71989e-14
smoothSolver:  Solving for nuTilda, Initial residual = 1.00932e-08, Final residual = 7.9444e-10, No Iterations 2
bounding nuTilda, min: -1.25719e-05 max: 0.409999 average: 0.0318086
ExecutionTime = 377.89 s  ClockTime = 378 s

Time = 4973

smoothSolver:  Solving for Ux, Initial residual = 1.89181e-07, Final residual = 9.67682e-09, No Iterations 4
smoothSolver:  Solving for Uy, Initial residual = 1.20553e-06, Final residual = 4.29579e-09, No Iterations 8
GAMG:  Solving for p, Initial residual = 5.5447e-06, Final residual = 5.35912e-07, No Iterations 2
time step continuity errors : sum local = 1.57163e-07, global = -4.15239e-17, cumulative = 7.71574e-14
smoothSolver:  Solving for nuTilda, Initial residual = 1.401e-08, Final residual = 8.93938e-10, No Iterations 2
ExecutionTime = 377.96 s  ClockTime = 378 s

Time = 4974

smoothSolver:  Solving for Ux, Initial residual = 1.52425e-07, Final residual = 7.31471e-09, No Iterations 4
smoothSolver:  Solving for Uy, Initial residual = 9.96735e-07, Final residual = 3.27695e-09, No Iterations 8
GAMG:  Solving for p, Initial residual = 6.6077e-06, Final residual = 7.1673e-07, No Iterations 2
time step continuity errors : sum local = 2.0991e-07, global = -2.69146e-17, cumulative = 7.71305e-14
smoothSolver:  Solving for nuTilda, Initial residual = 1.08697e-08, Final residual = 8.63156e-10, No Iterations 2
ExecutionTime = 378.03 s  ClockTime = 378 s

Time = 4975

smoothSolver:  Solving for Ux, Initial residual = 1.20652e-07, Final residual = 5.59483e-09, No Iterations 4
smoothSolver:  Solving for Uy, Initial residual = 8.43191e-07, Final residual = 2.68979e-09, No Iterations 8
GAMG:  Solving for p, Initial residual = 4.42338e-06, Final residual = 6.33596e-07, No Iterations 2
time step continuity errors : sum local = 1.86225e-07, global = -2.92843e-17, cumulative = 7.71012e-14
smoothSolver:  Solving for nuTilda, Initial residual = 1.0431e-08, Final residual = 8.10044e-10, No Iterations 2
bounding nuTilda, min: -1.25794e-05 max: 0.409999 average: 0.0318086
ExecutionTime = 378.11 s  ClockTime = 378 s

forces wings output:
    sum of forces:
        pressure : (1.19497 3.64146 -6.49229e-20)
        viscous  : (0.151329 0.00907505 4.10541e-21)
        porous   : (0 0 0)
    sum of moments:
        pressure : (-0.182073 0.0597485 3.58572)
        viscous  : (-0.000453753 0.00756644 -0.0131891)
        porous   : (0 0 0)

Time = 4976

smoothSolver:  Solving for Ux, Initial residual = 1.48029e-07, Final residual = 7.89973e-09, No Iterations 4
smoothSolver:  Solving for Uy, Initial residual = 1.08019e-06, Final residual = 3.86005e-09, No Iterations 8
GAMG:  Solving for p, Initial residual = 4.63434e-06, Final residual = 9.92488e-07, No Iterations 1
time step continuity errors : sum local = 2.91085e-07, global = -2.79296e-16, cumulative = 7.68219e-14
smoothSolver:  Solving for nuTilda, Initial residual = 1.27733e-08, Final residual = 7.68397e-10, No Iterations 2
ExecutionTime = 378.19 s  ClockTime = 378 s

Time = 4977

smoothSolver:  Solving for Ux, Initial residual = 1.44092e-07, Final residual = 7.33253e-09, No Iterations 4
smoothSolver:  Solving for Uy, Initial residual = 9.88402e-07, Final residual = 3.46715e-09, No Iterations 8
GAMG:  Solving for p, Initial residual = 6.06489e-06, Final residual = 6.18744e-07, No Iterations 2
time step continuity errors : sum local = 1.81086e-07, global = 3.57229e-17, cumulative = 7.68576e-14
smoothSolver:  Solving for nuTilda, Initial residual = 1.1131e-08, Final residual = 7.54341e-10, No Iterations 2
ExecutionTime = 378.26 s  ClockTime = 378 s

Time = 4978

smoothSolver:  Solving for Ux, Initial residual = 1.24733e-07, Final residual = 6.28852e-09, No Iterations 4
smoothSolver:  Solving for Uy, Initial residual = 8.08499e-07, Final residual = 2.7467e-09, No Iterations 8
GAMG:  Solving for p, Initial residual = 3.91986e-06, Final residual = 5.20877e-07, No Iterations 2
time step continuity errors : sum local = 1.52891e-07, global = -1.02584e-16, cumulative = 7.6755e-14
smoothSolver:  Solving for nuTilda, Initial residual = 9.65495e-09, Final residual = 9.65495e-09, No Iterations 0
ExecutionTime = 378.33 s  ClockTime = 378 s

Time = 4979

smoothSolver:  Solving for Ux, Initial residual = 1.25519e-07, Final residual = 5.95286e-09, No Iterations 4
smoothSolver:  Solving for Uy, Initial residual = 7.97145e-07, Final residual = 2.81537e-09, No Iterations 8
GAMG:  Solving for p, Initial residual = 6.4925e-06, Final residual = 5.31127e-07, No Iterations 2
time step continuity errors : sum local = 1.55873e-07, global = 1.19551e-16, cumulative = 7.68746e-14
smoothSolver:  Solving for nuTilda, Initial residual = 1.00767e-08, Final residual = 7.8051e-10, No Iterations 2
bounding nuTilda, min: -1.24295e-05 max: 0.409999 average: 0.0318086
ExecutionTime = 378.41 s  ClockTime = 378 s

Time = 4980

smoothSolver:  Solving for Ux, Initial residual = 1.45182e-07, Final residual = 6.70388e-09, No Iterations 4
smoothSolver:  Solving for Uy, Initial residual = 9.58564e-07, Final residual = 3.18078e-09, No Iterations 8
GAMG:  Solving for p, Initial residual = 5.62021e-06, Final residual = 5.27362e-07, No Iterations 2
time step continuity errors : sum local = 1.55008e-07, global = 8.76157e-17, cumulative = 7.69622e-14
smoothSolver:  Solving for nuTilda, Initial residual = 1.38347e-08, Final residual = 7.95762e-10, No Iterations 2
ExecutionTime = 378.48 s  ClockTime = 378 s

forces wings output:
    sum of forces:
        pressure : (1.19484 3.64208 -6.4896e-20)
        viscous  : (0.15133 0.0090756 4.10407e-21)
        porous   : (0 0 0)
    sum of moments:
        pressure : (-0.182104 0.0597421 3.58573)
        viscous  : (-0.00045378 0.00756649 -0.0131897)
        porous   : (0 0 0)

Time = 4981

smoothSolver:  Solving for Ux, Initial residual = 1.24237e-07, Final residual = 5.60192e-09, No Iterations 4
smoothSolver:  Solving for Uy, Initial residual = 8.05336e-07, Final residual = 9.61939e-09, No Iterations 6
GAMG:  Solving for p, Initial residual = 6.32729e-06, Final residual = 5.64177e-07, No Iterations 2
time step continuity errors : sum local = 1.65347e-07, global = 2.64946e-16, cumulative = 7.72271e-14
smoothSolver:  Solving for nuTilda, Initial residual = 1.05678e-08, Final residual = 7.70525e-10, No Iterations 2
ExecutionTime = 378.55 s  ClockTime = 378 s

Time = 4982

smoothSolver:  Solving for Ux, Initial residual = 1.08594e-07, Final residual = 5.03731e-09, No Iterations 4
smoothSolver:  Solving for Uy, Initial residual = 6.88481e-07, Final residual = 8.47701e-09, No Iterations 6
GAMG:  Solving for p, Initial residual = 4.33714e-06, Final residual = 4.9505e-07, No Iterations 2
time step continuity errors : sum local = 1.45418e-07, global = -2.44521e-17, cumulative = 7.72027e-14
smoothSolver:  Solving for nuTilda, Initial residual = 1.02783e-08, Final residual = 7.50165e-10, No Iterations 2
bounding nuTilda, min: -1.26012e-05 max: 0.409999 average: 0.0318086
ExecutionTime = 378.63 s  ClockTime = 378 s

Time = 4983

smoothSolver:  Solving for Ux, Initial residual = 1.0734e-07, Final residual = 5.09782e-09, No Iterations 4
smoothSolver:  Solving for Uy, Initial residual = 7.91769e-07, Final residual = 2.60459e-09, No Iterations 8
GAMG:  Solving for p, Initial residual = 4.35887e-06, Final residual = 9.22845e-07, No Iterations 1
time step continuity errors : sum local = 2.70413e-07, global = -5.64534e-18, cumulative = 7.7197e-14
smoothSolver:  Solving for nuTilda, Initial residual = 1.27833e-08, Final residual = 7.83928e-10, No Iterations 2
ExecutionTime = 378.7 s  ClockTime = 379 s

Time = 4984

smoothSolver:  Solving for Ux, Initial residual = 9.91967e-08, Final residual = 4.18079e-09, No Iterations 4
smoothSolver:  Solving for Uy, Initial residual = 7.04694e-07, Final residual = 8.90226e-09, No Iterations 6
GAMG:  Solving for p, Initial residual = 5.87535e-06, Final residual = 4.75135e-07, No Iterations 2
time step continuity errors : sum local = 1.39305e-07, global = 1.28545e-16, cumulative = 7.73256e-14
smoothSolver:  Solving for nuTilda, Initial residual = 1.11942e-08, Final residual = 7.87308e-10, No Iterations 2
ExecutionTime = 378.77 s  ClockTime = 379 s

Time = 4985

smoothSolver:  Solving for Ux, Initial residual = 9.34894e-08, Final residual = 3.9954e-09, No Iterations 4
smoothSolver:  Solving for Uy, Initial residual = 6.43659e-07, Final residual = 7.83174e-09, No Iterations 6
GAMG:  Solving for p, Initial residual = 3.69206e-06, Final residual = 9.14051e-07, No Iterations 1
time step continuity errors : sum local = 2.67699e-07, global = 3.58708e-17, cumulative = 7.73615e-14
smoothSolver:  Solving for nuTilda, Initial residual = 9.75648e-09, Final residual = 9.75648e-09, No Iterations 0
ExecutionTime = 378.83 s  ClockTime = 379 s

forces wings output:
    sum of forces:
        pressure : (1.19483 3.64235 -6.49093e-20)
        viscous  : (0.151324 0.00907626 4.13158e-21)
        porous   : (0 0 0)
    sum of moments:
        pressure : (-0.182118 0.0597414 3.5858)
        viscous  : (-0.000453813 0.00756621 -0.0131894)
        porous   : (0 0 0)

Time = 4986

smoothSolver:  Solving for Ux, Initial residual = 9.70304e-08, Final residual = 4.05396e-09, No Iterations 4
smoothSolver:  Solving for Uy, Initial residual = 5.5237e-07, Final residual = 7.21027e-09, No Iterations 6
GAMG:  Solving for p, Initial residual = 6.41642e-06, Final residual = 5.8023e-07, No Iterations 2
time step continuity errors : sum local = 1.70026e-07, global = 2.44674e-16, cumulative = 7.76061e-14
smoothSolver:  Solving for nuTilda, Initial residual = 9.9776e-09, Final residual = 9.9776e-09, No Iterations 0
ExecutionTime = 378.91 s  ClockTime = 379 s

Time = 4987

smoothSolver:  Solving for Ux, Initial residual = 1.04254e-07, Final residual = 5.01344e-09, No Iterations 4
smoothSolver:  Solving for Uy, Initial residual = 6.79478e-07, Final residual = 9.0752e-09, No Iterations 6
GAMG:  Solving for p, Initial residual = 6.05515e-06, Final residual = 9.64157e-07, No Iterations 1
time step continuity errors : sum local = 2.82388e-07, global = -2.46703e-18, cumulative = 7.76037e-14
smoothSolver:  Solving for nuTilda, Initial residual = 1.02766e-08, Final residual = 8.31828e-10, No Iterations 2
bounding nuTilda, min: -1.24411e-05 max: 0.409999 average: 0.0318086
ExecutionTime = 378.98 s  ClockTime = 379 s

Time = 4988

smoothSolver:  Solving for Ux, Initial residual = 1.25264e-07, Final residual = 4.93033e-09, No Iterations 4
smoothSolver:  Solving for Uy, Initial residual = 7.91992e-07, Final residual = 9.55787e-09, No Iterations 6
GAMG:  Solving for p, Initial residual = 5.49562e-06, Final residual = 5.67656e-07, No Iterations 2
time step continuity errors : sum local = 1.6619e-07, global = 1.50858e-16, cumulative = 7.77545e-14
smoothSolver:  Solving for nuTilda, Initial residual = 1.38276e-08, Final residual = 7.87529e-10, No Iterations 2
ExecutionTime = 379.05 s  ClockTime = 379 s

Time = 4989

smoothSolver:  Solving for Ux, Initial residual = 1.06681e-07, Final residual = 4.10998e-09, No Iterations 4
smoothSolver:  Solving for Uy, Initial residual = 6.91848e-07, Final residual = 6.99064e-09, No Iterations 6
GAMG:  Solving for p, Initial residual = 7.04555e-06, Final residual = 5.03074e-07, No Iterations 2
time step continuity errors : sum local = 1.47579e-07, global = -3.22898e-16, cumulative = 7.74316e-14
smoothSolver:  Solving for nuTilda, Initial residual = 1.04867e-08, Final residual = 7.66456e-10, No Iterations 2
ExecutionTime = 379.12 s  ClockTime = 379 s

Time = 4990

smoothSolver:  Solving for Ux, Initial residual = 1.12503e-07, Final residual = 4.96982e-09, No Iterations 4
smoothSolver:  Solving for Uy, Initial residual = 7.61636e-07, Final residual = 9.22522e-09, No Iterations 6
GAMG:  Solving for p, Initial residual = 4.7764e-06, Final residual = 9.10633e-07, No Iterations 1
time step continuity errors : sum local = 2.66787e-07, global = -1.31085e-16, cumulative = 7.73005e-14
smoothSolver:  Solving for nuTilda, Initial residual = 1.03186e-08, Final residual = 7.39752e-10, No Iterations 2
bounding nuTilda, min: -1.27954e-05 max: 0.409999 average: 0.0318086
ExecutionTime = 379.2 s  ClockTime = 379 s

forces wings output:
    sum of forces:
        pressure : (1.19498 3.64143 -6.48992e-20)
        viscous  : (0.151329 0.00907472 4.10526e-21)
        porous   : (0 0 0)
    sum of moments:
        pressure : (-0.182072 0.0597492 3.58574)
        viscous  : (-0.000453736 0.00756645 -0.0131892)
        porous   : (0 0 0)

Time = 4991

smoothSolver:  Solving for Ux, Initial residual = 1.10089e-07, Final residual = 5.08243e-09, No Iterations 4
smoothSolver:  Solving for Uy, Initial residual = 7.90612e-07, Final residual = 2.53618e-09, No Iterations 8
GAMG:  Solving for p, Initial residual = 4.22985e-06, Final residual = 9.65176e-07, No Iterations 1
time step continuity errors : sum local = 2.82821e-07, global = -7.35227e-17, cumulative = 7.7227e-14
smoothSolver:  Solving for nuTilda, Initial residual = 1.27737e-08, Final residual = 7.68799e-10, No Iterations 2
ExecutionTime = 379.27 s  ClockTime = 379 s

Time = 4992

smoothSolver:  Solving for Ux, Initial residual = 9.72473e-08, Final residual = 3.89324e-09, No Iterations 4
smoothSolver:  Solving for Uy, Initial residual = 6.91142e-07, Final residual = 8.24761e-09, No Iterations 6
GAMG:  Solving for p, Initial residual = 6.19495e-06, Final residual = 5.44254e-07, No Iterations 2
time step continuity errors : sum local = 1.59533e-07, global = -1.88488e-17, cumulative = 7.72082e-14
smoothSolver:  Solving for nuTilda, Initial residual = 1.10864e-08, Final residual = 7.35295e-10, No Iterations 2
ExecutionTime = 379.34 s  ClockTime = 379 s

Time = 4993

smoothSolver:  Solving for Ux, Initial residual = 9.36957e-08, Final residual = 3.80562e-09, No Iterations 4
smoothSolver:  Solving for Uy, Initial residual = 6.90046e-07, Final residual = 7.81607e-09, No Iterations 6
GAMG:  Solving for p, Initial residual = 3.73082e-06, Final residual = 8.64477e-07, No Iterations 1
time step continuity errors : sum local = 2.53156e-07, global = 1.42279e-16, cumulative = 7.73504e-14
smoothSolver:  Solving for nuTilda, Initial residual = 9.44439e-09, Final residual = 9.44439e-09, No Iterations 0
ExecutionTime = 379.41 s  ClockTime = 379 s

Time = 4994

smoothSolver:  Solving for Ux, Initial residual = 1.03185e-07, Final residual = 4.29266e-09, No Iterations 4
smoothSolver:  Solving for Uy, Initial residual = 6.54702e-07, Final residual = 8.27709e-09, No Iterations 6
GAMG:  Solving for p, Initial residual = 6.46585e-06, Final residual = 4.9962e-07, No Iterations 2
time step continuity errors : sum local = 1.46532e-07, global = 3.09029e-16, cumulative = 7.76595e-14
smoothSolver:  Solving for nuTilda, Initial residual = 9.68784e-09, Final residual = 9.68784e-09, No Iterations 0
ExecutionTime = 379.48 s  ClockTime = 379 s

Time = 4995

smoothSolver:  Solving for Ux, Initial residual = 9.87286e-08, Final residual = 4.60084e-09, No Iterations 4
smoothSolver:  Solving for Uy, Initial residual = 6.53538e-07, Final residual = 8.53579e-09, No Iterations 6
GAMG:  Solving for p, Initial residual = 6.05215e-06, Final residual = 9.8253e-07, No Iterations 1
time step continuity errors : sum local = 2.87911e-07, global = 1.61485e-16, cumulative = 7.7821e-14
smoothSolver:  Solving for nuTilda, Initial residual = 1.00579e-08, Final residual = 7.8365e-10, No Iterations 2
bounding nuTilda, min: -1.24798e-05 max: 0.409999 average: 0.0318086
ExecutionTime = 379.54 s  ClockTime = 379 s

forces wings output:
    sum of forces:
        pressure : (1.19483 3.64213 -6.49179e-20)
        viscous  : (0.151329 0.00907668 4.13584e-21)
        porous   : (0 0 0)
    sum of moments:
        pressure : (-0.182107 0.0597414 3.58572)
        viscous  : (-0.000453834 0.00756647 -0.0131912)
        porous   : (0 0 0)

Time = 4996

smoothSolver:  Solving for Ux, Initial residual = 1.18547e-07, Final residual = 4.52599e-09, No Iterations 4
smoothSolver:  Solving for Uy, Initial residual = 7.51364e-07, Final residual = 8.89148e-09, No Iterations 6
GAMG:  Solving for p, Initial residual = 5.5202e-06, Final residual = 5.34581e-07, No Iterations 2
time step continuity errors : sum local = 1.56682e-07, global = 1.00046e-16, cumulative = 7.7921e-14
smoothSolver:  Solving for nuTilda, Initial residual = 1.36743e-08, Final residual = 7.53025e-10, No Iterations 2
ExecutionTime = 379.62 s  ClockTime = 379 s

Time = 4997

smoothSolver:  Solving for Ux, Initial residual = 1.08213e-07, Final residual = 4.18593e-09, No Iterations 4
smoothSolver:  Solving for Uy, Initial residual = 6.91998e-07, Final residual = 7.06931e-09, No Iterations 6
GAMG:  Solving for p, Initial residual = 7.02596e-06, Final residual = 4.55263e-07, No Iterations 2
time step continuity errors : sum local = 1.33404e-07, global = 2.20975e-16, cumulative = 7.8142e-14
smoothSolver:  Solving for nuTilda, Initial residual = 1.03573e-08, Final residual = 7.28648e-10, No Iterations 2
ExecutionTime = 379.69 s  ClockTime = 380 s

Time = 4998

smoothSolver:  Solving for Ux, Initial residual = 1.05495e-07, Final residual = 4.41657e-09, No Iterations 4
smoothSolver:  Solving for Uy, Initial residual = 7.30045e-07, Final residual = 8.80599e-09, No Iterations 6
GAMG:  Solving for p, Initial residual = 4.81679e-06, Final residual = 9.24245e-07, No Iterations 1
time step continuity errors : sum local = 2.70633e-07, global = -8.6671e-17, cumulative = 7.80553e-14
smoothSolver:  Solving for nuTilda, Initial residual = 1.00912e-08, Final residual = 6.91472e-10, No Iterations 2
bounding nuTilda, min: -1.27966e-05 max: 0.409999 average: 0.0318086
ExecutionTime = 379.76 s  ClockTime = 380 s

Time = 4999

smoothSolver:  Solving for Ux, Initial residual = 1.01727e-07, Final residual = 4.40117e-09, No Iterations 4
smoothSolver:  Solving for Uy, Initial residual = 7.45615e-07, Final residual = 9.32059e-09, No Iterations 6
GAMG:  Solving for p, Initial residual = 4.2845e-06, Final residual = 4.41015e-07, No Iterations 2
time step continuity errors : sum local = 1.29194e-07, global = 1.49823e-16, cumulative = 7.82051e-14
smoothSolver:  Solving for nuTilda, Initial residual = 1.25216e-08, Final residual = 7.1091e-10, No Iterations 2
ExecutionTime = 379.83 s  ClockTime = 380 s

Time = 5000

smoothSolver:  Solving for Ux, Initial residual = 9.37104e-08, Final residual = 3.48937e-09, No Iterations 4
smoothSolver:  Solving for Uy, Initial residual = 6.36568e-07, Final residual = 7.01744e-09, No Iterations 6
GAMG:  Solving for p, Initial residual = 6.02103e-06, Final residual = 9.29506e-07, No Iterations 1
time step continuity errors : sum local = 2.72195e-07, global = 6.78605e-18, cumulative = 7.82119e-14
smoothSolver:  Solving for nuTilda, Initial residual = 1.10516e-08, Final residual = 7.36187e-10, No Iterations 2
ExecutionTime = 380.05 s  ClockTime = 380 s

forces wings output:
    sum of forces:
        pressure : (1.19488 3.64213 -6.49048e-20)
        viscous  : (0.15133 0.009074 4.09879e-21)
        porous   : (0 0 0)
    sum of moments:
        pressure : (-0.182106 0.059744 3.58581)
        viscous  : (-0.0004537 0.00756648 -0.0131888)
        porous   : (0 0 0)

End

