/*---------------------------------------------------------------------------*\
| =========                 |                                                 |
| \\      /  F ield         | OpenFOAM: The Open Source CFD Toolbox           |
|  \\    /   O peration     | Version:  2.3.0                                 |
|   \\  /    A nd           | Web:      www.OpenFOAM.org                      |
|    \\/     M anipulation  |                                                 |
\*---------------------------------------------------------------------------*/
Build  : 2.3.0-f5222ca19ce6
Exec   : simpleFoam -case Runs/first_flatplate_300_14/case
Date   : Jan 11 2015
Time   : 13:17:19
Host   : "lordvon-XPS-8300"
PID    : 6261
Case   : Runs/first_flatplate_300_14/case
nProcs : 1
sigFpe : Enabling floating point exception trapping (FOAM_SIGFPE).
fileModificationChecking : Monitoring run-time modified files using timeStampMaster
allowSystemOperations : Disallowing user-supplied system call operations

// * * * * * * * * * * * * * * * * * * * * * * * * * * * * * * * * * * * * * //
Create time

Create mesh for time = 0

Reading field p

Reading field U

Reading/calculating face flux field phi

Selecting incompressible transport model Newtonian
Selecting RAS turbulence model SpalartAllmaras
SpalartAllmarasCoeffs
{
    sigmaNut        0.66666;
    kappa           0.41;
    Cb1             0.1355;
    Cb2             0.622;
    Cw2             0.3;
    Cw3             2;
    Cv1             7.1;
    Cv2             5;
}

    Employing Ashford correction
No finite volume options present


SIMPLE: convergence criteria
    field p	 tolerance 1e-12
    field U	 tolerance 1e-12
    field nuTilda	 tolerance 1e-12


Starting time loop

forces wings:
    Not including porosity effects

Time = 1

smoothSolver:  Solving for Ux, Initial residual = 1, Final residual = 0.00476826, No Iterations 6
smoothSolver:  Solving for Uy, Initial residual = 1, Final residual = 0.00807047, No Iterations 4
GAMG:  Solving for p, Initial residual = 1, Final residual = 0.00945266, No Iterations 12
time step continuity errors : sum local = 0.000946067, global = 4.65529e-17, cumulative = 4.65529e-17
smoothSolver:  Solving for nuTilda, Initial residual = 1, Final residual = 0.00400452, No Iterations 4
ExecutionTime = 0.39 s  ClockTime = 0 s

Time = 2

smoothSolver:  Solving for Ux, Initial residual = 0.623034, Final residual = 0.0033019, No Iterations 8
smoothSolver:  Solving for Uy, Initial residual = 0.672326, Final residual = 0.00374047, No Iterations 8
GAMG:  Solving for p, Initial residual = 0.806138, Final residual = 0.00639443, No Iterations 7
time step continuity errors : sum local = 0.00156788, global = 2.41137e-16, cumulative = 2.8769e-16
smoothSolver:  Solving for nuTilda, Initial residual = 0.184683, Final residual = 0.000703518, No Iterations 6
ExecutionTime = 0.49 s  ClockTime = 0 s

Time = 3

smoothSolver:  Solving for Ux, Initial residual = 0.240351, Final residual = 0.00125792, No Iterations 8
smoothSolver:  Solving for Uy, Initial residual = 0.242898, Final residual = 0.00133563, No Iterations 8
GAMG:  Solving for p, Initial residual = 0.625888, Final residual = 0.00484937, No Iterations 10
time step continuity errors : sum local = 0.00165798, global = -2.23271e-17, cumulative = 2.65363e-16
smoothSolver:  Solving for nuTilda, Initial residual = 0.0935511, Final residual = 0.000826454, No Iterations 6
ExecutionTime = 0.6 s  ClockTime = 0 s

Time = 4

smoothSolver:  Solving for Ux, Initial residual = 0.0845324, Final residual = 0.000376678, No Iterations 8
smoothSolver:  Solving for Uy, Initial residual = 0.080142, Final residual = 0.000419575, No Iterations 8
GAMG:  Solving for p, Initial residual = 0.522034, Final residual = 0.0050573, No Iterations 8
time step continuity errors : sum local = 0.00162042, global = 4.66885e-17, cumulative = 3.12052e-16
smoothSolver:  Solving for nuTilda, Initial residual = 0.0706288, Final residual = 0.000197188, No Iterations 8
ExecutionTime = 0.7 s  ClockTime = 0 s

Time = 5

smoothSolver:  Solving for Ux, Initial residual = 0.23541, Final residual = 0.00121922, No Iterations 8
smoothSolver:  Solving for Uy, Initial residual = 0.235666, Final residual = 0.00126858, No Iterations 8
GAMG:  Solving for p, Initial residual = 0.48809, Final residual = 0.00417087, No Iterations 7
time step continuity errors : sum local = 0.00137883, global = 1.42983e-16, cumulative = 4.55034e-16
smoothSolver:  Solving for nuTilda, Initial residual = 0.057871, Final residual = 0.000180858, No Iterations 8
ExecutionTime = 0.8 s  ClockTime = 0 s

forces wings output:
    sum of forces:
        pressure : (-418.214 -1677.37 1.0561e-17)
        viscous  : (0.511834 -0.0875478 -2.28842e-20)
        porous   : (0 0 0)
    sum of moments:
        pressure : (83.8684 -20.9107 -432.718)
        viscous  : (0.00437739 0.0255917 0.00979009)
        porous   : (0 0 0)

Time = 6

smoothSolver:  Solving for Ux, Initial residual = 0.197848, Final residual = 0.000985031, No Iterations 8
smoothSolver:  Solving for Uy, Initial residual = 0.21119, Final residual = 0.00113332, No Iterations 8
GAMG:  Solving for p, Initial residual = 0.395937, Final residual = 0.00307532, No Iterations 10
time step continuity errors : sum local = 0.0010081, global = 1.59021e-16, cumulative = 6.14055e-16
smoothSolver:  Solving for nuTilda, Initial residual = 0.0478363, Final residual = 0.00015854, No Iterations 8
ExecutionTime = 0.91 s  ClockTime = 0 s

Time = 7

smoothSolver:  Solving for Ux, Initial residual = 0.15399, Final residual = 0.0007068, No Iterations 8
smoothSolver:  Solving for Uy, Initial residual = 0.179621, Final residual = 0.000933804, No Iterations 8
GAMG:  Solving for p, Initial residual = 0.306484, Final residual = 0.00229475, No Iterations 8
time step continuity errors : sum local = 0.000716521, global = 3.51539e-17, cumulative = 6.49209e-16
smoothSolver:  Solving for nuTilda, Initial residual = 0.0397595, Final residual = 0.00013728, No Iterations 8
ExecutionTime = 1.01 s  ClockTime = 1 s

Time = 8

smoothSolver:  Solving for Ux, Initial residual = 0.162785, Final residual = 0.000813653, No Iterations 8
smoothSolver:  Solving for Uy, Initial residual = 0.179225, Final residual = 0.000944897, No Iterations 8
GAMG:  Solving for p, Initial residual = 0.344185, Final residual = 0.00313824, No Iterations 7
time step continuity errors : sum local = 0.00103492, global = -9.33088e-17, cumulative = 5.559e-16
smoothSolver:  Solving for nuTilda, Initial residual = 0.0333221, Final residual = 0.000119095, No Iterations 8
ExecutionTime = 1.11 s  ClockTime = 1 s

Time = 9

smoothSolver:  Solving for Ux, Initial residual = 0.0585085, Final residual = 0.000265411, No Iterations 8
smoothSolver:  Solving for Uy, Initial residual = 0.0451942, Final residual = 0.000235147, No Iterations 8
GAMG:  Solving for p, Initial residual = 0.266156, Final residual = 0.00255251, No Iterations 9
time step continuity errors : sum local = 0.000823854, global = -1.91293e-18, cumulative = 5.53987e-16
smoothSolver:  Solving for nuTilda, Initial residual = 0.0284787, Final residual = 0.000105115, No Iterations 8
ExecutionTime = 1.22 s  ClockTime = 1 s

Time = 10

smoothSolver:  Solving for Ux, Initial residual = 0.0708154, Final residual = 0.000330751, No Iterations 8
smoothSolver:  Solving for Uy, Initial residual = 0.0800359, Final residual = 0.000413022, No Iterations 8
GAMG:  Solving for p, Initial residual = 0.228161, Final residual = 0.00164276, No Iterations 6
time step continuity errors : sum local = 0.000511, global = -2.49787e-17, cumulative = 5.29008e-16
smoothSolver:  Solving for nuTilda, Initial residual = 0.0248279, Final residual = 9.46444e-05, No Iterations 8
ExecutionTime = 1.32 s  ClockTime = 1 s

forces wings output:
    sum of forces:
        pressure : (-258.094 -1035.16 3.31779e-18)
        viscous  : (0.472578 -0.151309 6.07757e-21)
        porous   : (0 0 0)
    sum of moments:
        pressure : (51.758 -12.9047 -274.251)
        viscous  : (0.00756546 0.0236289 -0.00833916)
        porous   : (0 0 0)

Time = 11

smoothSolver:  Solving for Ux, Initial residual = 0.0871089, Final residual = 0.00042249, No Iterations 8
smoothSolver:  Solving for Uy, Initial residual = 0.10596, Final residual = 0.000546002, No Iterations 8
GAMG:  Solving for p, Initial residual = 0.241107, Final residual = 0.00217056, No Iterations 7
time step continuity errors : sum local = 0.000690014, global = -1.31999e-16, cumulative = 3.97009e-16
smoothSolver:  Solving for nuTilda, Initial residual = 0.0219245, Final residual = 8.62975e-05, No Iterations 8
ExecutionTime = 1.43 s  ClockTime = 1 s

Time = 12

smoothSolver:  Solving for Ux, Initial residual = 0.0359181, Final residual = 0.000136364, No Iterations 8
smoothSolver:  Solving for Uy, Initial residual = 0.0242181, Final residual = 0.000108269, No Iterations 8
GAMG:  Solving for p, Initial residual = 0.177619, Final residual = 0.00149763, No Iterations 9
time step continuity errors : sum local = 0.000452912, global = 1.59404e-16, cumulative = 5.56413e-16
smoothSolver:  Solving for nuTilda, Initial residual = 0.0195989, Final residual = 7.89814e-05, No Iterations 8
ExecutionTime = 1.53 s  ClockTime = 1 s

Time = 13

smoothSolver:  Solving for Ux, Initial residual = 0.0605326, Final residual = 0.000270911, No Iterations 8
smoothSolver:  Solving for Uy, Initial residual = 0.0686389, Final residual = 0.000345211, No Iterations 8
GAMG:  Solving for p, Initial residual = 0.163191, Final residual = 0.00119455, No Iterations 6
time step continuity errors : sum local = 0.000355201, global = 5.68539e-17, cumulative = 6.13267e-16
smoothSolver:  Solving for nuTilda, Initial residual = 0.0175752, Final residual = 7.21863e-05, No Iterations 8
ExecutionTime = 1.63 s  ClockTime = 1 s

Time = 14

smoothSolver:  Solving for Ux, Initial residual = 0.0488496, Final residual = 0.000224303, No Iterations 8
smoothSolver:  Solving for Uy, Initial residual = 0.048806, Final residual = 0.000246495, No Iterations 8
GAMG:  Solving for p, Initial residual = 0.168955, Final residual = 0.00138661, No Iterations 7
time step continuity errors : sum local = 0.000425145, global = 3.50009e-16, cumulative = 9.63276e-16
smoothSolver:  Solving for nuTilda, Initial residual = 0.0158647, Final residual = 6.62664e-05, No Iterations 8
ExecutionTime = 1.73 s  ClockTime = 1 s

Time = 15

smoothSolver:  Solving for Ux, Initial residual = 0.0245568, Final residual = 9.91109e-05, No Iterations 8
smoothSolver:  Solving for Uy, Initial residual = 0.0141937, Final residual = 6.36622e-05, No Iterations 8
GAMG:  Solving for p, Initial residual = 0.121852, Final residual = 0.000906165, No Iterations 8
time step continuity errors : sum local = 0.000269587, global = 2.10776e-17, cumulative = 9.84353e-16
smoothSolver:  Solving for nuTilda, Initial residual = 0.0144243, Final residual = 6.14156e-05, No Iterations 8
ExecutionTime = 1.83 s  ClockTime = 1 s

forces wings output:
    sum of forces:
        pressure : (-92.6033 -371.412 -1.77487e-18)
        viscous  : (0.459935 -0.141521 6.01357e-20)
        porous   : (0 0 0)
    sum of moments:
        pressure : (18.5706 -4.63016 -103.763)
        viscous  : (0.00707604 0.0229968 -0.00685714)
        porous   : (0 0 0)

Time = 16

smoothSolver:  Solving for Ux, Initial residual = 0.0329728, Final residual = 0.000149466, No Iterations 8
smoothSolver:  Solving for Uy, Initial residual = 0.0399337, Final residual = 0.000198296, No Iterations 8
GAMG:  Solving for p, Initial residual = 0.123949, Final residual = 0.000877335, No Iterations 6
time step continuity errors : sum local = 0.000259672, global = -1.15516e-16, cumulative = 8.68837e-16
smoothSolver:  Solving for nuTilda, Initial residual = 0.0132325, Final residual = 5.74308e-05, No Iterations 8
ExecutionTime = 1.93 s  ClockTime = 2 s

Time = 17

smoothSolver:  Solving for Ux, Initial residual = 0.0241873, Final residual = 0.000105187, No Iterations 8
smoothSolver:  Solving for Uy, Initial residual = 0.0286028, Final residual = 0.000140029, No Iterations 8
GAMG:  Solving for p, Initial residual = 0.118653, Final residual = 0.000944672, No Iterations 6
time step continuity errors : sum local = 0.000281076, global = -2.46873e-16, cumulative = 6.21964e-16
smoothSolver:  Solving for nuTilda, Initial residual = 0.012245, Final residual = 5.3957e-05, No Iterations 8
ExecutionTime = 2.03 s  ClockTime = 2 s

Time = 18

smoothSolver:  Solving for Ux, Initial residual = 0.0171625, Final residual = 6.39107e-05, No Iterations 8
smoothSolver:  Solving for Uy, Initial residual = 0.0160639, Final residual = 7.41181e-05, No Iterations 8
GAMG:  Solving for p, Initial residual = 0.0852341, Final residual = 0.000796827, No Iterations 6
time step continuity errors : sum local = 0.000232191, global = -4.48772e-16, cumulative = 1.73192e-16
smoothSolver:  Solving for nuTilda, Initial residual = 0.011351, Final residual = 5.07218e-05, No Iterations 8
ExecutionTime = 2.12 s  ClockTime = 2 s

Time = 19

smoothSolver:  Solving for Ux, Initial residual = 0.023504, Final residual = 0.00010076, No Iterations 8
smoothSolver:  Solving for Uy, Initial residual = 0.0245605, Final residual = 0.000119155, No Iterations 8
GAMG:  Solving for p, Initial residual = 0.0912779, Final residual = 0.00067996, No Iterations 6
time step continuity errors : sum local = 0.000198626, global = 1.07451e-16, cumulative = 2.80644e-16
smoothSolver:  Solving for nuTilda, Initial residual = 0.0105237, Final residual = 4.76688e-05, No Iterations 8
ExecutionTime = 2.22 s  ClockTime = 2 s

Time = 20

smoothSolver:  Solving for Ux, Initial residual = 0.0161788, Final residual = 6.86083e-05, No Iterations 8
smoothSolver:  Solving for Uy, Initial residual = 0.0117539, Final residual = 5.6749e-05, No Iterations 8
GAMG:  Solving for p, Initial residual = 0.0820779, Final residual = 0.000575628, No Iterations 6
time step continuity errors : sum local = 0.00016855, global = 2.14334e-16, cumulative = 4.94978e-16
smoothSolver:  Solving for nuTilda, Initial residual = 0.0097721, Final residual = 4.48921e-05, No Iterations 8
ExecutionTime = 2.31 s  ClockTime = 2 s

forces wings output:
    sum of forces:
        pressure : (-15.6873 -62.9184 -2.74502e-18)
        viscous  : (0.448924 -0.123069 6.85721e-20)
        porous   : (0 0 0)
    sum of moments:
        pressure : (3.14592 -0.784365 -21.9342)
        viscous  : (0.00615345 0.0224462 -0.00294874)
        porous   : (0 0 0)

Time = 21

smoothSolver:  Solving for Ux, Initial residual = 0.0139069, Final residual = 5.90417e-05, No Iterations 8
smoothSolver:  Solving for Uy, Initial residual = 0.0111488, Final residual = 5.18468e-05, No Iterations 8
GAMG:  Solving for p, Initial residual = 0.0596719, Final residual = 0.000532578, No Iterations 5
time step continuity errors : sum local = 0.000155338, global = 9.79904e-17, cumulative = 5.92968e-16
smoothSolver:  Solving for nuTilda, Initial residual = 0.00913493, Final residual = 4.24824e-05, No Iterations 8
ExecutionTime = 2.41 s  ClockTime = 2 s

Time = 22

smoothSolver:  Solving for Ux, Initial residual = 0.0130395, Final residual = 5.76016e-05, No Iterations 8
smoothSolver:  Solving for Uy, Initial residual = 0.015163, Final residual = 7.26108e-05, No Iterations 8
GAMG:  Solving for p, Initial residual = 0.0640259, Final residual = 0.00034316, No Iterations 6
time step continuity errors : sum local = 9.9606e-05, global = -9.38572e-17, cumulative = 4.99111e-16
smoothSolver:  Solving for nuTilda, Initial residual = 0.00859794, Final residual = 4.03751e-05, No Iterations 8
ExecutionTime = 2.5 s  ClockTime = 2 s

Time = 23

smoothSolver:  Solving for Ux, Initial residual = 0.0074445, Final residual = 2.90282e-05, No Iterations 8
smoothSolver:  Solving for Uy, Initial residual = 0.00662747, Final residual = 3.04695e-05, No Iterations 8
GAMG:  Solving for p, Initial residual = 0.0559851, Final residual = 0.000436194, No Iterations 6
time step continuity errors : sum local = 0.000127758, global = 9.4542e-18, cumulative = 5.08565e-16
smoothSolver:  Solving for nuTilda, Initial residual = 0.00812391, Final residual = 3.84577e-05, No Iterations 8
ExecutionTime = 2.6 s  ClockTime = 2 s

Time = 24

smoothSolver:  Solving for Ux, Initial residual = 0.00950351, Final residual = 3.79364e-05, No Iterations 8
smoothSolver:  Solving for Uy, Initial residual = 0.00888139, Final residual = 4.18312e-05, No Iterations 8
GAMG:  Solving for p, Initial residual = 0.0417369, Final residual = 0.000384423, No Iterations 5
time step continuity errors : sum local = 0.000110806, global = 1.02449e-16, cumulative = 6.11014e-16
smoothSolver:  Solving for nuTilda, Initial residual = 0.00769286, Final residual = 3.66214e-05, No Iterations 8
ExecutionTime = 2.69 s  ClockTime = 2 s

Time = 25

smoothSolver:  Solving for Ux, Initial residual = 0.0101239, Final residual = 4.21788e-05, No Iterations 8
smoothSolver:  Solving for Uy, Initial residual = 0.00826234, Final residual = 3.90405e-05, No Iterations 8
GAMG:  Solving for p, Initial residual = 0.0426893, Final residual = 0.000302287, No Iterations 6
time step continuity errors : sum local = 8.77013e-05, global = 6.27079e-17, cumulative = 6.73722e-16
smoothSolver:  Solving for nuTilda, Initial residual = 0.00728437, Final residual = 3.48785e-05, No Iterations 8
ExecutionTime = 2.79 s  ClockTime = 2 s

forces wings output:
    sum of forces:
        pressure : (7.10637 28.5021 -3.16695e-18)
        viscous  : (0.436308 -0.11141 7.77118e-20)
        porous   : (0 0 0)
    sum of moments:
        pressure : (-1.4251 0.355318 3.31978)
        viscous  : (0.0055705 0.0218154 -0.000805478)
        porous   : (0 0 0)

Time = 26

smoothSolver:  Solving for Ux, Initial residual = 0.00802439, Final residual = 3.32029e-05, No Iterations 8
smoothSolver:  Solving for Uy, Initial residual = 0.00363026, Final residual = 1.69236e-05, No Iterations 8
GAMG:  Solving for p, Initial residual = 0.0371915, Final residual = 0.000322748, No Iterations 5
time step continuity errors : sum local = 9.32244e-05, global = 7.23739e-17, cumulative = 7.46096e-16
smoothSolver:  Solving for nuTilda, Initial residual = 0.0069162, Final residual = 3.32514e-05, No Iterations 8
ExecutionTime = 2.88 s  ClockTime = 2 s

Time = 27

smoothSolver:  Solving for Ux, Initial residual = 0.00795483, Final residual = 3.41931e-05, No Iterations 8
smoothSolver:  Solving for Uy, Initial residual = 0.0060079, Final residual = 2.84619e-05, No Iterations 8
GAMG:  Solving for p, Initial residual = 0.0292092, Final residual = 0.000123526, No Iterations 6
time step continuity errors : sum local = 3.57743e-05, global = -1.40935e-17, cumulative = 7.32003e-16
smoothSolver:  Solving for nuTilda, Initial residual = 0.00659469, Final residual = 3.17714e-05, No Iterations 8
ExecutionTime = 2.98 s  ClockTime = 3 s

Time = 28

smoothSolver:  Solving for Ux, Initial residual = 0.0062992, Final residual = 2.73042e-05, No Iterations 8
smoothSolver:  Solving for Uy, Initial residual = 0.00554199, Final residual = 2.63689e-05, No Iterations 8
GAMG:  Solving for p, Initial residual = 0.0282555, Final residual = 0.00012842, No Iterations 6
time step continuity errors : sum local = 3.74217e-05, global = -4.91817e-18, cumulative = 7.27084e-16
smoothSolver:  Solving for nuTilda, Initial residual = 0.00630417, Final residual = 3.03969e-05, No Iterations 8
ExecutionTime = 3.07 s  ClockTime = 3 s

Time = 29

smoothSolver:  Solving for Ux, Initial residual = 0.00533228, Final residual = 2.24097e-05, No Iterations 8
smoothSolver:  Solving for Uy, Initial residual = 0.00368627, Final residual = 1.74759e-05, No Iterations 8
GAMG:  Solving for p, Initial residual = 0.024975, Final residual = 0.000214767, No Iterations 5
time step continuity errors : sum local = 6.2703e-05, global = 1.51977e-16, cumulative = 8.79061e-16
smoothSolver:  Solving for nuTilda, Initial residual = 0.00603822, Final residual = 2.91299e-05, No Iterations 8
ExecutionTime = 3.17 s  ClockTime = 3 s

Time = 30

smoothSolver:  Solving for Ux, Initial residual = 0.00605602, Final residual = 2.54958e-05, No Iterations 8
smoothSolver:  Solving for Uy, Initial residual = 0.00429923, Final residual = 2.07448e-05, No Iterations 8
GAMG:  Solving for p, Initial residual = 0.020591, Final residual = 0.000115573, No Iterations 6
time step continuity errors : sum local = 3.34139e-05, global = 6.01582e-18, cumulative = 8.85077e-16
smoothSolver:  Solving for nuTilda, Initial residual = 0.00578711, Final residual = 2.79163e-05, No Iterations 8
ExecutionTime = 3.26 s  ClockTime = 3 s

forces wings output:
    sum of forces:
        pressure : (8.63283 34.6244 -3.14397e-18)
        viscous  : (0.422642 -0.105173 8.13991e-20)
        porous   : (0 0 0)
    sum of moments:
        pressure : (-1.73122 0.431642 4.90013)
        viscous  : (0.00525866 0.0211321 -9.93718e-05)
        porous   : (0 0 0)

Time = 31

smoothSolver:  Solving for Ux, Initial residual = 0.00590855, Final residual = 2.48018e-05, No Iterations 8
smoothSolver:  Solving for Uy, Initial residual = 0.00305294, Final residual = 1.48665e-05, No Iterations 8
GAMG:  Solving for p, Initial residual = 0.0188307, Final residual = 0.00012416, No Iterations 6
time step continuity errors : sum local = 3.61734e-05, global = -3.0824e-17, cumulative = 8.54253e-16
smoothSolver:  Solving for nuTilda, Initial residual = 0.00555079, Final residual = 2.67785e-05, No Iterations 8
ExecutionTime = 3.36 s  ClockTime = 3 s

Time = 32

smoothSolver:  Solving for Ux, Initial residual = 0.0057198, Final residual = 2.4268e-05, No Iterations 8
smoothSolver:  Solving for Uy, Initial residual = 0.00260194, Final residual = 1.26188e-05, No Iterations 8
GAMG:  Solving for p, Initial residual = 0.0166562, Final residual = 8.28313e-05, No Iterations 5
time step continuity errors : sum local = 2.38028e-05, global = -1.95762e-16, cumulative = 6.58491e-16
smoothSolver:  Solving for nuTilda, Initial residual = 0.00532705, Final residual = 2.569e-05, No Iterations 8
ExecutionTime = 3.45 s  ClockTime = 3 s

Time = 33

smoothSolver:  Solving for Ux, Initial residual = 0.00539678, Final residual = 2.31545e-05, No Iterations 8
smoothSolver:  Solving for Uy, Initial residual = 0.00316283, Final residual = 1.55741e-05, No Iterations 8
GAMG:  Solving for p, Initial residual = 0.0144616, Final residual = 6.65654e-05, No Iterations 6
time step continuity errors : sum local = 1.91586e-05, global = 6.37217e-17, cumulative = 7.22213e-16
smoothSolver:  Solving for nuTilda, Initial residual = 0.00512042, Final residual = 2.46932e-05, No Iterations 8
ExecutionTime = 3.55 s  ClockTime = 3 s

Time = 34

smoothSolver:  Solving for Ux, Initial residual = 0.00487335, Final residual = 2.10849e-05, No Iterations 8
smoothSolver:  Solving for Uy, Initial residual = 0.00252995, Final residual = 1.27912e-05, No Iterations 8
GAMG:  Solving for p, Initial residual = 0.0126874, Final residual = 0.000103312, No Iterations 5
time step continuity errors : sum local = 3.00616e-05, global = 9.35168e-17, cumulative = 8.1573e-16
smoothSolver:  Solving for nuTilda, Initial residual = 0.00492995, Final residual = 2.37464e-05, No Iterations 8
bounding nuTilda, min: -2.24883e-05 max: 0.397792 average: 0.0828031
ExecutionTime = 3.64 s  ClockTime = 3 s

Time = 35

smoothSolver:  Solving for Ux, Initial residual = 0.00469633, Final residual = 2.03621e-05, No Iterations 8
smoothSolver:  Solving for Uy, Initial residual = 0.00249513, Final residual = 1.25753e-05, No Iterations 8
GAMG:  Solving for p, Initial residual = 0.0116039, Final residual = 0.00010151, No Iterations 5
time step continuity errors : sum local = 2.97283e-05, global = 1.3522e-16, cumulative = 9.5095e-16
smoothSolver:  Solving for nuTilda, Initial residual = 0.00475051, Final residual = 2.28576e-05, No Iterations 8
ExecutionTime = 3.74 s  ClockTime = 3 s

forces wings output:
    sum of forces:
        pressure : (6.74389 27.0483 -3.30497e-18)
        viscous  : (0.40839 -0.101157 9.20997e-20)
        porous   : (0 0 0)
    sum of moments:
        pressure : (-1.35241 0.337195 2.51095)
        viscous  : (0.00505783 0.0204195 4.76211e-06)
        porous   : (0 0 0)

Time = 36

smoothSolver:  Solving for Ux, Initial residual = 0.00470254, Final residual = 2.0479e-05, No Iterations 8
smoothSolver:  Solving for Uy, Initial residual = 0.00229494, Final residual = 1.17996e-05, No Iterations 8
GAMG:  Solving for p, Initial residual = 0.0104102, Final residual = 9.01249e-05, No Iterations 5
time step continuity errors : sum local = 2.61603e-05, global = 1.56874e-17, cumulative = 9.66637e-16
smoothSolver:  Solving for nuTilda, Initial residual = 0.00457917, Final residual = 2.2008e-05, No Iterations 8
ExecutionTime = 3.83 s  ClockTime = 3 s

Time = 37

smoothSolver:  Solving for Ux, Initial residual = 0.00466805, Final residual = 2.04868e-05, No Iterations 8
smoothSolver:  Solving for Uy, Initial residual = 0.0017511, Final residual = 9.30026e-06, No Iterations 8
GAMG:  Solving for p, Initial residual = 0.00893932, Final residual = 7.30282e-05, No Iterations 5
time step continuity errors : sum local = 2.13611e-05, global = -1.50948e-17, cumulative = 9.51542e-16
smoothSolver:  Solving for nuTilda, Initial residual = 0.00441737, Final residual = 2.12054e-05, No Iterations 8
ExecutionTime = 3.93 s  ClockTime = 4 s

Time = 38

smoothSolver:  Solving for Ux, Initial residual = 0.00454601, Final residual = 2.01013e-05, No Iterations 8
smoothSolver:  Solving for Uy, Initial residual = 0.00189958, Final residual = 9.99728e-06, No Iterations 8
GAMG:  Solving for p, Initial residual = 0.00857798, Final residual = 7.33522e-05, No Iterations 5
time step continuity errors : sum local = 2.15571e-05, global = -4.69544e-17, cumulative = 9.04588e-16
smoothSolver:  Solving for nuTilda, Initial residual = 0.00426673, Final residual = 2.04503e-05, No Iterations 8
bounding nuTilda, min: -5.57314e-05 max: 0.397861 average: 0.0799213
ExecutionTime = 4.02 s  ClockTime = 4 s

Time = 39

smoothSolver:  Solving for Ux, Initial residual = 0.0043618, Final residual = 1.93801e-05, No Iterations 8
smoothSolver:  Solving for Uy, Initial residual = 0.00190538, Final residual = 1.01811e-05, No Iterations 8
GAMG:  Solving for p, Initial residual = 0.0081551, Final residual = 5.47464e-05, No Iterations 5
time step continuity errors : sum local = 1.59252e-05, global = 9.61458e-17, cumulative = 1.00073e-15
smoothSolver:  Solving for nuTilda, Initial residual = 0.00412304, Final residual = 1.97233e-05, No Iterations 8
ExecutionTime = 4.11 s  ClockTime = 4 s

Time = 40

smoothSolver:  Solving for Ux, Initial residual = 0.00419827, Final residual = 1.86676e-05, No Iterations 8
smoothSolver:  Solving for Uy, Initial residual = 0.00177604, Final residual = 9.66375e-06, No Iterations 8
GAMG:  Solving for p, Initial residual = 0.00678364, Final residual = 5.66622e-05, No Iterations 5
time step continuity errors : sum local = 1.6551e-05, global = 2.76684e-16, cumulative = 1.27742e-15
smoothSolver:  Solving for nuTilda, Initial residual = 0.00398706, Final residual = 1.90452e-05, No Iterations 8
ExecutionTime = 4.21 s  ClockTime = 4 s

forces wings output:
    sum of forces:
        pressure : (5.45522 21.8797 -3.39716e-18)
        viscous  : (0.394075 -0.097712 9.87269e-20)
        porous   : (0 0 0)
    sum of moments:
        pressure : (-1.09398 0.272761 0.790914)
        viscous  : (0.0048856 0.0197038 -2.97198e-05)
        porous   : (0 0 0)

Time = 41

smoothSolver:  Solving for Ux, Initial residual = 0.00412343, Final residual = 1.83175e-05, No Iterations 8
smoothSolver:  Solving for Uy, Initial residual = 0.00177754, Final residual = 9.64933e-06, No Iterations 8
GAMG:  Solving for p, Initial residual = 0.00625944, Final residual = 5.75728e-05, No Iterations 5
time step continuity errors : sum local = 1.68889e-05, global = 2.69302e-16, cumulative = 1.54672e-15
smoothSolver:  Solving for nuTilda, Initial residual = 0.00385634, Final residual = 1.83856e-05, No Iterations 8
ExecutionTime = 4.3 s  ClockTime = 4 s

Time = 42

smoothSolver:  Solving for Ux, Initial residual = 0.00409491, Final residual = 1.82273e-05, No Iterations 8
smoothSolver:  Solving for Uy, Initial residual = 0.00160389, Final residual = 8.8936e-06, No Iterations 8
GAMG:  Solving for p, Initial residual = 0.00610037, Final residual = 3.44566e-05, No Iterations 5
time step continuity errors : sum local = 1.00338e-05, global = -7.53569e-17, cumulative = 1.47136e-15
smoothSolver:  Solving for nuTilda, Initial residual = 0.00373168, Final residual = 1.7761e-05, No Iterations 8
bounding nuTilda, min: -9.00128e-05 max: 0.39792 average: 0.0772866
ExecutionTime = 4.4 s  ClockTime = 4 s

Time = 43

smoothSolver:  Solving for Ux, Initial residual = 0.00404812, Final residual = 1.80988e-05, No Iterations 8
smoothSolver:  Solving for Uy, Initial residual = 0.00152009, Final residual = 8.52043e-06, No Iterations 8
GAMG:  Solving for p, Initial residual = 0.00553816, Final residual = 5.25406e-05, No Iterations 4
time step continuity errors : sum local = 1.52435e-05, global = -1.59079e-16, cumulative = 1.31228e-15
smoothSolver:  Solving for nuTilda, Initial residual = 0.00361133, Final residual = 1.71572e-05, No Iterations 8
ExecutionTime = 4.49 s  ClockTime = 4 s

Time = 44

smoothSolver:  Solving for Ux, Initial residual = 0.00395439, Final residual = 1.77662e-05, No Iterations 8
smoothSolver:  Solving for Uy, Initial residual = 0.00155, Final residual = 8.71008e-06, No Iterations 8
GAMG:  Solving for p, Initial residual = 0.00519, Final residual = 4.78796e-05, No Iterations 4
time step continuity errors : sum local = 1.39433e-05, global = 2.96909e-17, cumulative = 1.34197e-15
smoothSolver:  Solving for nuTilda, Initial residual = 0.00349608, Final residual = 1.65912e-05, No Iterations 8
ExecutionTime = 4.58 s  ClockTime = 4 s

Time = 45

smoothSolver:  Solving for Ux, Initial residual = 0.00384223, Final residual = 1.73281e-05, No Iterations 8
smoothSolver:  Solving for Uy, Initial residual = 0.00153813, Final residual = 8.73143e-06, No Iterations 8
GAMG:  Solving for p, Initial residual = 0.00496608, Final residual = 4.66142e-05, No Iterations 4
time step continuity errors : sum local = 1.35672e-05, global = 1.47382e-17, cumulative = 1.35671e-15
smoothSolver:  Solving for nuTilda, Initial residual = 0.00338509, Final residual = 1.60452e-05, No Iterations 8
ExecutionTime = 4.68 s  ClockTime = 4 s

forces wings output:
    sum of forces:
        pressure : (5.28132 21.1822 -3.59976e-18)
        viscous  : (0.380194 -0.0943999 1.08855e-19)
        porous   : (0 0 0)
    sum of moments:
        pressure : (-1.05911 0.264066 0.486897)
        viscous  : (0.00471999 0.0190097 -6.88136e-05)
        porous   : (0 0 0)

Time = 46

smoothSolver:  Solving for Ux, Initial residual = 0.00374676, Final residual = 1.6928e-05, No Iterations 8
smoothSolver:  Solving for Uy, Initial residual = 0.00153153, Final residual = 8.73487e-06, No Iterations 8
GAMG:  Solving for p, Initial residual = 0.00469152, Final residual = 4.64402e-05, No Iterations 4
time step continuity errors : sum local = 1.35096e-05, global = -1.69902e-16, cumulative = 1.18681e-15
smoothSolver:  Solving for nuTilda, Initial residual = 0.00328129, Final residual = 1.55351e-05, No Iterations 8
bounding nuTilda, min: -7.00211e-05 max: 0.397916 average: 0.0748657
ExecutionTime = 4.77 s  ClockTime = 4 s

Time = 47

smoothSolver:  Solving for Ux, Initial residual = 0.00368368, Final residual = 1.66578e-05, No Iterations 8
smoothSolver:  Solving for Uy, Initial residual = 0.001485, Final residual = 8.53814e-06, No Iterations 8
GAMG:  Solving for p, Initial residual = 0.00450041, Final residual = 4.46608e-05, No Iterations 4
time step continuity errors : sum local = 1.2956e-05, global = 1.83309e-16, cumulative = 1.37012e-15
smoothSolver:  Solving for nuTilda, Initial residual = 0.0031792, Final residual = 1.5051e-05, No Iterations 8
ExecutionTime = 4.86 s  ClockTime = 4 s

Time = 48

smoothSolver:  Solving for Ux, Initial residual = 0.00364019, Final residual = 1.64821e-05, No Iterations 8
smoothSolver:  Solving for Uy, Initial residual = 0.00143188, Final residual = 8.2963e-06, No Iterations 8
GAMG:  Solving for p, Initial residual = 0.00428826, Final residual = 3.79774e-05, No Iterations 4
time step continuity errors : sum local = 1.10438e-05, global = -8.45281e-17, cumulative = 1.28559e-15
smoothSolver:  Solving for nuTilda, Initial residual = 0.00308154, Final residual = 1.45895e-05, No Iterations 8
ExecutionTime = 4.95 s  ClockTime = 5 s

Time = 49

smoothSolver:  Solving for Ux, Initial residual = 0.00359099, Final residual = 1.62911e-05, No Iterations 8
smoothSolver:  Solving for Uy, Initial residual = 0.00141614, Final residual = 8.23805e-06, No Iterations 8
GAMG:  Solving for p, Initial residual = 0.00409171, Final residual = 3.24006e-05, No Iterations 4
time step continuity errors : sum local = 9.44117e-06, global = 2.58453e-16, cumulative = 1.54405e-15
smoothSolver:  Solving for nuTilda, Initial residual = 0.00298756, Final residual = 1.4144e-05, No Iterations 8
ExecutionTime = 5.04 s  ClockTime = 5 s

Time = 50

smoothSolver:  Solving for Ux, Initial residual = 0.00352715, Final residual = 1.6041e-05, No Iterations 8
smoothSolver:  Solving for Uy, Initial residual = 0.00141464, Final residual = 8.27114e-06, No Iterations 8
GAMG:  Solving for p, Initial residual = 0.00401685, Final residual = 3.75882e-05, No Iterations 4
time step continuity errors : sum local = 1.09475e-05, global = 3.00436e-17, cumulative = 1.57409e-15
smoothSolver:  Solving for nuTilda, Initial residual = 0.00289945, Final residual = 1.37233e-05, No Iterations 8
bounding nuTilda, min: -5.30387e-06 max: 0.397954 average: 0.0726315
ExecutionTime = 5.12 s  ClockTime = 5 s

forces wings output:
    sum of forces:
        pressure : (5.52518 22.1603 -3.72031e-18)
        viscous  : (0.366445 -0.091049 1.15772e-19)
        porous   : (0 0 0)
    sum of moments:
        pressure : (-1.10801 0.276259 0.702504)
        viscous  : (0.00455245 0.0183222 -8.02804e-05)
        porous   : (0 0 0)

Time = 51

smoothSolver:  Solving for Ux, Initial residual = 0.00345751, Final residual = 1.57627e-05, No Iterations 8
smoothSolver:  Solving for Uy, Initial residual = 0.00142289, Final residual = 8.33395e-06, No Iterations 8
GAMG:  Solving for p, Initial residual = 0.00388813, Final residual = 3.22297e-05, No Iterations 4
time step continuity errors : sum local = 9.34243e-06, global = 8.46677e-17, cumulative = 1.65876e-15
smoothSolver:  Solving for nuTilda, Initial residual = 0.00281555, Final residual = 1.33224e-05, No Iterations 8
ExecutionTime = 5.22 s  ClockTime = 5 s

Time = 52

smoothSolver:  Solving for Ux, Initial residual = 0.00339368, Final residual = 1.55056e-05, No Iterations 8
smoothSolver:  Solving for Uy, Initial residual = 0.00141987, Final residual = 8.33346e-06, No Iterations 8
GAMG:  Solving for p, Initial residual = 0.00375452, Final residual = 2.2098e-05, No Iterations 4
time step continuity errors : sum local = 6.42629e-06, global = -9.22284e-17, cumulative = 1.56653e-15
smoothSolver:  Solving for nuTilda, Initial residual = 0.00273586, Final residual = 1.29414e-05, No Iterations 8
ExecutionTime = 5.31 s  ClockTime = 5 s

Time = 53

smoothSolver:  Solving for Ux, Initial residual = 0.00334227, Final residual = 1.52959e-05, No Iterations 8
smoothSolver:  Solving for Uy, Initial residual = 0.00139572, Final residual = 8.2449e-06, No Iterations 8
GAMG:  Solving for p, Initial residual = 0.00364432, Final residual = 2.38763e-05, No Iterations 4
time step continuity errors : sum local = 6.95392e-06, global = -8.34829e-17, cumulative = 1.48305e-15
smoothSolver:  Solving for nuTilda, Initial residual = 0.00265939, Final residual = 1.25712e-05, No Iterations 8
ExecutionTime = 5.39 s  ClockTime = 5 s

Time = 54

smoothSolver:  Solving for Ux, Initial residual = 0.00329451, Final residual = 1.50951e-05, No Iterations 8
smoothSolver:  Solving for Uy, Initial residual = 0.00137002, Final residual = 8.15042e-06, No Iterations 8
GAMG:  Solving for p, Initial residual = 0.00354905, Final residual = 2.60242e-05, No Iterations 4
time step continuity errors : sum local = 7.55543e-06, global = -7.24797e-17, cumulative = 1.41057e-15
smoothSolver:  Solving for nuTilda, Initial residual = 0.00258571, Final residual = 1.22164e-05, No Iterations 8
ExecutionTime = 5.48 s  ClockTime = 5 s

Time = 55

smoothSolver:  Solving for Ux, Initial residual = 0.00324639, Final residual = 1.48895e-05, No Iterations 8
smoothSolver:  Solving for Uy, Initial residual = 0.00135564, Final residual = 8.10144e-06, No Iterations 8
GAMG:  Solving for p, Initial residual = 0.0034819, Final residual = 2.64404e-05, No Iterations 4
time step continuity errors : sum local = 7.70177e-06, global = -1.74001e-16, cumulative = 1.23656e-15
smoothSolver:  Solving for nuTilda, Initial residual = 0.00251436, Final residual = 1.18764e-05, No Iterations 8
ExecutionTime = 5.57 s  ClockTime = 5 s

forces wings output:
    sum of forces:
        pressure : (5.67812 22.7737 -3.804e-18)
        viscous  : (0.353168 -0.0877749 1.21522e-19)
        porous   : (0 0 0)
    sum of moments:
        pressure : (-1.13868 0.283906 0.755561)
        viscous  : (0.00438874 0.0176584 -7.89773e-05)
        porous   : (0 0 0)

Time = 56

smoothSolver:  Solving for Ux, Initial residual = 0.00319664, Final residual = 1.46816e-05, No Iterations 8
smoothSolver:  Solving for Uy, Initial residual = 0.00135084, Final residual = 8.09328e-06, No Iterations 8
GAMG:  Solving for p, Initial residual = 0.00341109, Final residual = 2.4934e-05, No Iterations 4
time step continuity errors : sum local = 7.24069e-06, global = -2.18502e-16, cumulative = 1.01806e-15
smoothSolver:  Solving for nuTilda, Initial residual = 0.00244673, Final residual = 1.15506e-05, No Iterations 8
ExecutionTime = 5.66 s  ClockTime = 5 s

Time = 57

smoothSolver:  Solving for Ux, Initial residual = 0.00314755, Final residual = 1.44854e-05, No Iterations 8
smoothSolver:  Solving for Uy, Initial residual = 0.00134751, Final residual = 8.09372e-06, No Iterations 8
GAMG:  Solving for p, Initial residual = 0.00332396, Final residual = 2.05792e-05, No Iterations 4
time step continuity errors : sum local = 5.96227e-06, global = -8.64207e-18, cumulative = 1.00942e-15
smoothSolver:  Solving for nuTilda, Initial residual = 0.00238266, Final residual = 1.12356e-05, No Iterations 8
ExecutionTime = 5.75 s  ClockTime = 5 s

Time = 58

smoothSolver:  Solving for Ux, Initial residual = 0.00310198, Final residual = 1.43026e-05, No Iterations 8
smoothSolver:  Solving for Uy, Initial residual = 0.00133927, Final residual = 8.07434e-06, No Iterations 8
GAMG:  Solving for p, Initial residual = 0.00326363, Final residual = 2.08924e-05, No Iterations 4
time step continuity errors : sum local = 6.0606e-06, global = -1.1454e-16, cumulative = 8.94881e-16
smoothSolver:  Solving for nuTilda, Initial residual = 0.00232109, Final residual = 1.0938e-05, No Iterations 8
ExecutionTime = 5.84 s  ClockTime = 5 s

Time = 59

smoothSolver:  Solving for Ux, Initial residual = 0.00305903, Final residual = 1.41237e-05, No Iterations 8
smoothSolver:  Solving for Uy, Initial residual = 0.00132712, Final residual = 8.03396e-06, No Iterations 8
GAMG:  Solving for p, Initial residual = 0.00318232, Final residual = 2.09806e-05, No Iterations 4
time step continuity errors : sum local = 6.08625e-06, global = 9.88425e-17, cumulative = 9.93723e-16
smoothSolver:  Solving for nuTilda, Initial residual = 0.0022615, Final residual = 1.0651e-05, No Iterations 8
ExecutionTime = 5.93 s  ClockTime = 6 s

Time = 60

smoothSolver:  Solving for Ux, Initial residual = 0.003018, Final residual = 1.39452e-05, No Iterations 8
smoothSolver:  Solving for Uy, Initial residual = 0.00131533, Final residual = 7.98875e-06, No Iterations 8
GAMG:  Solving for p, Initial residual = 0.00310159, Final residual = 2.22888e-05, No Iterations 4
time step continuity errors : sum local = 6.45844e-06, global = -6.4676e-17, cumulative = 9.29047e-16
smoothSolver:  Solving for nuTilda, Initial residual = 0.00220363, Final residual = 1.03749e-05, No Iterations 8
ExecutionTime = 6.02 s  ClockTime = 6 s

forces wings output:
    sum of forces:
        pressure : (5.80581 23.2858 -3.88511e-18)
        viscous  : (0.340229 -0.0845839 1.27044e-19)
        porous   : (0 0 0)
    sum of moments:
        pressure : (-1.16429 0.290291 0.746405)
        viscous  : (0.00422919 0.0170115 -7.19294e-05)
        porous   : (0 0 0)

Time = 61

smoothSolver:  Solving for Ux, Initial residual = 0.00297811, Final residual = 1.37702e-05, No Iterations 8
smoothSolver:  Solving for Uy, Initial residual = 0.00130554, Final residual = 7.95111e-06, No Iterations 8
GAMG:  Solving for p, Initial residual = 0.00303634, Final residual = 2.17559e-05, No Iterations 4
time step continuity errors : sum local = 6.3126e-06, global = -4.162e-16, cumulative = 5.12847e-16
smoothSolver:  Solving for nuTilda, Initial residual = 0.00214819, Final residual = 1.01077e-05, No Iterations 8
ExecutionTime = 6.12 s  ClockTime = 6 s

Time = 62

smoothSolver:  Solving for Ux, Initial residual = 0.00293887, Final residual = 1.36009e-05, No Iterations 8
smoothSolver:  Solving for Uy, Initial residual = 0.00129791, Final residual = 7.92288e-06, No Iterations 8
GAMG:  Solving for p, Initial residual = 0.00299368, Final residual = 2.20091e-05, No Iterations 4
time step continuity errors : sum local = 6.39375e-06, global = -3.7649e-17, cumulative = 4.75198e-16
smoothSolver:  Solving for nuTilda, Initial residual = 0.00209443, Final residual = 9.85032e-06, No Iterations 8
ExecutionTime = 6.2 s  ClockTime = 6 s

Time = 63

smoothSolver:  Solving for Ux, Initial residual = 0.00290086, Final residual = 1.34384e-05, No Iterations 8
smoothSolver:  Solving for Uy, Initial residual = 0.00129097, Final residual = 7.89729e-06, No Iterations 8
GAMG:  Solving for p, Initial residual = 0.00293602, Final residual = 2.15829e-05, No Iterations 4
time step continuity errors : sum local = 6.2726e-06, global = 1.04175e-17, cumulative = 4.85615e-16
smoothSolver:  Solving for nuTilda, Initial residual = 0.00204312, Final residual = 9.6e-06, No Iterations 8
ExecutionTime = 6.29 s  ClockTime = 6 s

Time = 64

smoothSolver:  Solving for Ux, Initial residual = 0.00286431, Final residual = 1.32817e-05, No Iterations 8
smoothSolver:  Solving for Uy, Initial residual = 0.00128335, Final residual = 7.86904e-06, No Iterations 8
GAMG:  Solving for p, Initial residual = 0.00288341, Final residual = 2.12294e-05, No Iterations 4
time step continuity errors : sum local = 6.16719e-06, global = 2.55535e-16, cumulative = 7.41151e-16
smoothSolver:  Solving for nuTilda, Initial residual = 0.00199271, Final residual = 9.35764e-06, No Iterations 8
ExecutionTime = 6.38 s  ClockTime = 6 s

Time = 65

smoothSolver:  Solving for Ux, Initial residual = 0.00282865, Final residual = 1.31283e-05, No Iterations 8
smoothSolver:  Solving for Uy, Initial residual = 0.00127469, Final residual = 7.83653e-06, No Iterations 8
GAMG:  Solving for p, Initial residual = 0.00282724, Final residual = 2.24968e-05, No Iterations 4
time step continuity errors : sum local = 6.53058e-06, global = 5.40901e-17, cumulative = 7.95241e-16
smoothSolver:  Solving for nuTilda, Initial residual = 0.00194347, Final residual = 9.12293e-06, No Iterations 8
ExecutionTime = 6.47 s  ClockTime = 6 s

forces wings output:
    sum of forces:
        pressure : (5.97284 23.9558 -3.94744e-18)
        viscous  : (0.327783 -0.0814969 1.31775e-19)
        porous   : (0 0 0)
    sum of moments:
        pressure : (-1.19779 0.298642 0.800135)
        viscous  : (0.00407484 0.0163891 -6.7365e-05)
        porous   : (0 0 0)

Time = 66

smoothSolver:  Solving for Ux, Initial residual = 0.00279354, Final residual = 1.29761e-05, No Iterations 8
smoothSolver:  Solving for Uy, Initial residual = 0.00126604, Final residual = 7.80225e-06, No Iterations 8
GAMG:  Solving for p, Initial residual = 0.00277545, Final residual = 1.89729e-05, No Iterations 4
time step continuity errors : sum local = 5.50275e-06, global = -5.63206e-17, cumulative = 7.3892e-16
smoothSolver:  Solving for nuTilda, Initial residual = 0.00189633, Final residual = 8.89669e-06, No Iterations 8
ExecutionTime = 6.56 s  ClockTime = 6 s

Time = 67

smoothSolver:  Solving for Ux, Initial residual = 0.00276011, Final residual = 1.28297e-05, No Iterations 8
smoothSolver:  Solving for Uy, Initial residual = 0.00125774, Final residual = 7.76715e-06, No Iterations 8
GAMG:  Solving for p, Initial residual = 0.0027269, Final residual = 1.91646e-05, No Iterations 4
time step continuity errors : sum local = 5.55858e-06, global = -2.13884e-18, cumulative = 7.36782e-16
smoothSolver:  Solving for nuTilda, Initial residual = 0.00185108, Final residual = 8.67848e-06, No Iterations 8
ExecutionTime = 6.65 s  ClockTime = 6 s

Time = 68

smoothSolver:  Solving for Ux, Initial residual = 0.00272715, Final residual = 1.26831e-05, No Iterations 8
smoothSolver:  Solving for Uy, Initial residual = 0.00125057, Final residual = 7.73633e-06, No Iterations 8
GAMG:  Solving for p, Initial residual = 0.00268719, Final residual = 2.01929e-05, No Iterations 4
time step continuity errors : sum local = 5.85654e-06, global = -6.88457e-17, cumulative = 6.67936e-16
smoothSolver:  Solving for nuTilda, Initial residual = 0.00180772, Final residual = 8.46881e-06, No Iterations 8
ExecutionTime = 6.74 s  ClockTime = 6 s

Time = 69

smoothSolver:  Solving for Ux, Initial residual = 0.00269477, Final residual = 1.25389e-05, No Iterations 8
smoothSolver:  Solving for Uy, Initial residual = 0.00124402, Final residual = 7.70741e-06, No Iterations 8
GAMG:  Solving for p, Initial residual = 0.00264745, Final residual = 2.10425e-05, No Iterations 4
time step continuity errors : sum local = 6.10475e-06, global = -4.27805e-18, cumulative = 6.63658e-16
smoothSolver:  Solving for nuTilda, Initial residual = 0.001766, Final residual = 8.26581e-06, No Iterations 8
ExecutionTime = 6.83 s  ClockTime = 6 s

Time = 70

smoothSolver:  Solving for Ux, Initial residual = 0.00266352, Final residual = 1.24014e-05, No Iterations 8
smoothSolver:  Solving for Uy, Initial residual = 0.00123726, Final residual = 7.67696e-06, No Iterations 8
GAMG:  Solving for p, Initial residual = 0.00260871, Final residual = 2.15198e-05, No Iterations 4
time step continuity errors : sum local = 6.24401e-06, global = 1.30075e-16, cumulative = 7.93733e-16
smoothSolver:  Solving for nuTilda, Initial residual = 0.0017256, Final residual = 8.06952e-06, No Iterations 8
ExecutionTime = 6.92 s  ClockTime = 7 s

forces wings output:
    sum of forces:
        pressure : (6.12957 24.5843 -3.98571e-18)
        viscous  : (0.315744 -0.0785173 1.35567e-19)
        porous   : (0 0 0)
    sum of moments:
        pressure : (-1.22922 0.306478 0.843666)
        viscous  : (0.00392586 0.0157872 -6.1269e-05)
        porous   : (0 0 0)

Time = 71

smoothSolver:  Solving for Ux, Initial residual = 0.00263361, Final residual = 1.22698e-05, No Iterations 8
smoothSolver:  Solving for Uy, Initial residual = 0.00122993, Final residual = 7.64364e-06, No Iterations 8
GAMG:  Solving for p, Initial residual = 0.002564, Final residual = 2.13392e-05, No Iterations 4
time step continuity errors : sum local = 6.19155e-06, global = -5.6596e-17, cumulative = 7.37137e-16
smoothSolver:  Solving for nuTilda, Initial residual = 0.00168674, Final residual = 7.87752e-06, No Iterations 8
ExecutionTime = 7.01 s  ClockTime = 7 s

Time = 72

smoothSolver:  Solving for Ux, Initial residual = 0.00260455, Final residual = 1.21414e-05, No Iterations 8
smoothSolver:  Solving for Uy, Initial residual = 0.00122218, Final residual = 7.60797e-06, No Iterations 8
GAMG:  Solving for p, Initial residual = 0.00252652, Final residual = 2.0964e-05, No Iterations 4
time step continuity errors : sum local = 6.08265e-06, global = 5.8674e-17, cumulative = 7.95811e-16
smoothSolver:  Solving for nuTilda, Initial residual = 0.00164894, Final residual = 7.69156e-06, No Iterations 8
ExecutionTime = 7.1 s  ClockTime = 7 s

Time = 73

smoothSolver:  Solving for Ux, Initial residual = 0.00257599, Final residual = 1.20139e-05, No Iterations 8
smoothSolver:  Solving for Uy, Initial residual = 0.00121452, Final residual = 7.57157e-06, No Iterations 8
GAMG:  Solving for p, Initial residual = 0.00248533, Final residual = 2.06782e-05, No Iterations 4
time step continuity errors : sum local = 6.00119e-06, global = 1.82156e-16, cumulative = 9.77967e-16
smoothSolver:  Solving for nuTilda, Initial residual = 0.0016117, Final residual = 7.51155e-06, No Iterations 8
ExecutionTime = 7.19 s  ClockTime = 7 s

Time = 74

smoothSolver:  Solving for Ux, Initial residual = 0.00254795, Final residual = 1.18872e-05, No Iterations 8
smoothSolver:  Solving for Uy, Initial residual = 0.00120718, Final residual = 7.53543e-06, No Iterations 8
GAMG:  Solving for p, Initial residual = 0.00244842, Final residual = 2.08832e-05, No Iterations 4
time step continuity errors : sum local = 6.06202e-06, global = 7.33265e-17, cumulative = 1.05129e-15
smoothSolver:  Solving for nuTilda, Initial residual = 0.00157551, Final residual = 7.33737e-06, No Iterations 8
ExecutionTime = 7.28 s  ClockTime = 7 s

Time = 75

smoothSolver:  Solving for Ux, Initial residual = 0.00252068, Final residual = 1.17628e-05, No Iterations 8
smoothSolver:  Solving for Uy, Initial residual = 0.00120016, Final residual = 7.49992e-06, No Iterations 8
GAMG:  Solving for p, Initial residual = 0.00241022, Final residual = 2.13026e-05, No Iterations 4
time step continuity errors : sum local = 6.1841e-06, global = 9.91514e-17, cumulative = 1.15044e-15
smoothSolver:  Solving for nuTilda, Initial residual = 0.00154067, Final residual = 7.16966e-06, No Iterations 8
ExecutionTime = 7.37 s  ClockTime = 7 s

forces wings output:
    sum of forces:
        pressure : (6.28926 25.2248 -4.02195e-18)
        viscous  : (0.304157 -0.0756499 1.39179e-19)
        porous   : (0 0 0)
    sum of moments:
        pressure : (-1.26124 0.314463 0.873427)
        viscous  : (0.00378249 0.0152079 -5.57008e-05)
        porous   : (0 0 0)

Time = 76

smoothSolver:  Solving for Ux, Initial residual = 0.00249437, Final residual = 1.16421e-05, No Iterations 8
smoothSolver:  Solving for Uy, Initial residual = 0.00119316, Final residual = 7.46393e-06, No Iterations 8
GAMG:  Solving for p, Initial residual = 0.00237659, Final residual = 2.16473e-05, No Iterations 4
time step continuity errors : sum local = 6.28442e-06, global = -6.39683e-17, cumulative = 1.08648e-15
smoothSolver:  Solving for nuTilda, Initial residual = 0.00150731, Final residual = 7.00897e-06, No Iterations 8
ExecutionTime = 7.47 s  ClockTime = 7 s

Time = 77

smoothSolver:  Solving for Ux, Initial residual = 0.00246898, Final residual = 1.15254e-05, No Iterations 8
smoothSolver:  Solving for Uy, Initial residual = 0.00118601, Final residual = 7.42675e-06, No Iterations 8
GAMG:  Solving for p, Initial residual = 0.00234214, Final residual = 2.15377e-05, No Iterations 4
time step continuity errors : sum local = 6.25342e-06, global = -4.38619e-17, cumulative = 1.04261e-15
smoothSolver:  Solving for nuTilda, Initial residual = 0.00147518, Final residual = 6.85492e-06, No Iterations 8
ExecutionTime = 7.55 s  ClockTime = 7 s

Time = 78

smoothSolver:  Solving for Ux, Initial residual = 0.00244429, Final residual = 1.14108e-05, No Iterations 8
smoothSolver:  Solving for Uy, Initial residual = 0.0011787, Final residual = 7.38828e-06, No Iterations 8
GAMG:  Solving for p, Initial residual = 0.00231044, Final residual = 2.12124e-05, No Iterations 4
time step continuity errors : sum local = 6.16111e-06, global = -8.82342e-17, cumulative = 9.5438e-16
smoothSolver:  Solving for nuTilda, Initial residual = 0.00144343, Final residual = 6.70323e-06, No Iterations 8
ExecutionTime = 7.65 s  ClockTime = 7 s

Time = 79

smoothSolver:  Solving for Ux, Initial residual = 0.00242006, Final residual = 1.12974e-05, No Iterations 8
smoothSolver:  Solving for Uy, Initial residual = 0.00117141, Final residual = 7.34916e-06, No Iterations 8
GAMG:  Solving for p, Initial residual = 0.00227885, Final residual = 2.09617e-05, No Iterations 4
time step continuity errors : sum local = 6.09104e-06, global = -4.27122e-17, cumulative = 9.11668e-16
smoothSolver:  Solving for nuTilda, Initial residual = 0.00141294, Final residual = 6.5557e-06, No Iterations 8
ExecutionTime = 7.74 s  ClockTime = 7 s

Time = 80

smoothSolver:  Solving for Ux, Initial residual = 0.00239614, Final residual = 1.11849e-05, No Iterations 8
smoothSolver:  Solving for Uy, Initial residual = 0.00116423, Final residual = 7.30979e-06, No Iterations 8
GAMG:  Solving for p, Initial residual = 0.00224875, Final residual = 2.10708e-05, No Iterations 4
time step continuity errors : sum local = 6.12512e-06, global = -3.00584e-16, cumulative = 6.11084e-16
smoothSolver:  Solving for nuTilda, Initial residual = 0.00138389, Final residual = 6.41398e-06, No Iterations 8
ExecutionTime = 7.82 s  ClockTime = 7 s

forces wings output:
    sum of forces:
        pressure : (6.45582 25.8929 -4.05425e-18)
        viscous  : (0.293013 -0.0728968 1.42556e-19)
        porous   : (0 0 0)
    sum of moments:
        pressure : (-1.29464 0.322791 0.910443)
        viscous  : (0.00364484 0.0146506 -4.94328e-05)
        porous   : (0 0 0)

Time = 81

smoothSolver:  Solving for Ux, Initial residual = 0.00237264, Final residual = 1.10743e-05, No Iterations 8
smoothSolver:  Solving for Uy, Initial residual = 0.00115723, Final residual = 7.27036e-06, No Iterations 8
GAMG:  Solving for p, Initial residual = 0.00221971, Final residual = 2.1482e-05, No Iterations 4
time step continuity errors : sum local = 6.24577e-06, global = -7.07241e-17, cumulative = 5.4036e-16
smoothSolver:  Solving for nuTilda, Initial residual = 0.00135541, Final residual = 6.27589e-06, No Iterations 8
ExecutionTime = 7.92 s  ClockTime = 8 s

Time = 82

smoothSolver:  Solving for Ux, Initial residual = 0.00234988, Final residual = 1.09667e-05, No Iterations 8
smoothSolver:  Solving for Uy, Initial residual = 0.00115015, Final residual = 7.22992e-06, No Iterations 8
GAMG:  Solving for p, Initial residual = 0.00219295, Final residual = 1.52609e-05, No Iterations 5
time step continuity errors : sum local = 4.46675e-06, global = -2.62566e-16, cumulative = 2.77794e-16
smoothSolver:  Solving for nuTilda, Initial residual = 0.00132755, Final residual = 6.142e-06, No Iterations 8
ExecutionTime = 8.01 s  ClockTime = 8 s

Time = 83

smoothSolver:  Solving for Ux, Initial residual = 0.00232869, Final residual = 1.08673e-05, No Iterations 8
smoothSolver:  Solving for Uy, Initial residual = 0.00114236, Final residual = 7.18624e-06, No Iterations 8
GAMG:  Solving for p, Initial residual = 0.00216706, Final residual = 1.01752e-05, No Iterations 5
time step continuity errors : sum local = 2.95442e-06, global = -2.26582e-16, cumulative = 5.12124e-17
smoothSolver:  Solving for nuTilda, Initial residual = 0.00130011, Final residual = 6.01143e-06, No Iterations 8
ExecutionTime = 8.1 s  ClockTime = 8 s

Time = 84

smoothSolver:  Solving for Ux, Initial residual = 0.00230755, Final residual = 1.07669e-05, No Iterations 8
smoothSolver:  Solving for Uy, Initial residual = 0.0011347, Final residual = 7.14213e-06, No Iterations 8
GAMG:  Solving for p, Initial residual = 0.00214261, Final residual = 9.41184e-06, No Iterations 5
time step continuity errors : sum local = 2.73553e-06, global = -1.12046e-16, cumulative = -6.08337e-17
smoothSolver:  Solving for nuTilda, Initial residual = 0.00127352, Final residual = 5.88268e-06, No Iterations 8
ExecutionTime = 8.2 s  ClockTime = 8 s

Time = 85

smoothSolver:  Solving for Ux, Initial residual = 0.00228588, Final residual = 1.06632e-05, No Iterations 8
smoothSolver:  Solving for Uy, Initial residual = 0.00112773, Final residual = 7.10029e-06, No Iterations 8
GAMG:  Solving for p, Initial residual = 0.00211711, Final residual = 2.10295e-05, No Iterations 4
time step continuity errors : sum local = 6.12977e-06, global = -1.1749e-16, cumulative = -1.78324e-16
smoothSolver:  Solving for nuTilda, Initial residual = 0.00124752, Final residual = 5.75891e-06, No Iterations 8
ExecutionTime = 8.29 s  ClockTime = 8 s

forces wings output:
    sum of forces:
        pressure : (6.62124 26.5563 -4.09392e-18)
        viscous  : (0.282348 -0.0702573 1.46103e-19)
        porous   : (0 0 0)
    sum of moments:
        pressure : (-1.32782 0.331062 0.943556)
        viscous  : (0.00351286 0.0141174 -4.46613e-05)
        porous   : (0 0 0)

Time = 86

smoothSolver:  Solving for Ux, Initial residual = 0.00226389, Final residual = 1.05573e-05, No Iterations 8
smoothSolver:  Solving for Uy, Initial residual = 0.00112132, Final residual = 7.0601e-06, No Iterations 8
GAMG:  Solving for p, Initial residual = 0.00209317, Final residual = 1.0275e-05, No Iterations 5
time step continuity errors : sum local = 2.98646e-06, global = -1.47112e-16, cumulative = -3.25436e-16
smoothSolver:  Solving for nuTilda, Initial residual = 0.00122212, Final residual = 5.6403e-06, No Iterations 8
ExecutionTime = 8.38 s  ClockTime = 8 s

Time = 87

smoothSolver:  Solving for Ux, Initial residual = 0.0022439, Final residual = 1.04619e-05, No Iterations 8
smoothSolver:  Solving for Uy, Initial residual = 0.00111387, Final residual = 7.01569e-06, No Iterations 8
GAMG:  Solving for p, Initial residual = 0.00207126, Final residual = 1.1088e-05, No Iterations 5
time step continuity errors : sum local = 3.22999e-06, global = -1.4578e-17, cumulative = -3.40014e-16
smoothSolver:  Solving for nuTilda, Initial residual = 0.00119708, Final residual = 5.52327e-06, No Iterations 8
ExecutionTime = 8.48 s  ClockTime = 8 s

Time = 88

smoothSolver:  Solving for Ux, Initial residual = 0.0022248, Final residual = 1.037e-05, No Iterations 8
smoothSolver:  Solving for Uy, Initial residual = 0.00110597, Final residual = 6.96872e-06, No Iterations 8
GAMG:  Solving for p, Initial residual = 0.00205065, Final residual = 1.13934e-05, No Iterations 5
time step continuity errors : sum local = 3.32456e-06, global = 6.98526e-17, cumulative = -2.70161e-16
smoothSolver:  Solving for nuTilda, Initial residual = 0.00117288, Final residual = 5.40856e-06, No Iterations 8
ExecutionTime = 8.57 s  ClockTime = 8 s

Time = 89

smoothSolver:  Solving for Ux, Initial residual = 0.00220589, Final residual = 1.02784e-05, No Iterations 8
smoothSolver:  Solving for Uy, Initial residual = 0.00109806, Final residual = 6.92084e-06, No Iterations 8
GAMG:  Solving for p, Initial residual = 0.00203029, Final residual = 1.14e-05, No Iterations 5
time step continuity errors : sum local = 3.32922e-06, global = -2.44922e-16, cumulative = -5.15083e-16
smoothSolver:  Solving for nuTilda, Initial residual = 0.001149, Final residual = 5.29807e-06, No Iterations 8
ExecutionTime = 8.66 s  ClockTime = 8 s

Time = 90

smoothSolver:  Solving for Ux, Initial residual = 0.00218677, Final residual = 1.01861e-05, No Iterations 8
smoothSolver:  Solving for Uy, Initial residual = 0.00109041, Final residual = 6.87353e-06, No Iterations 8
GAMG:  Solving for p, Initial residual = 0.00201081, Final residual = 1.13723e-05, No Iterations 5
time step continuity errors : sum local = 3.32212e-06, global = 3.98994e-17, cumulative = -4.75183e-16
smoothSolver:  Solving for nuTilda, Initial residual = 0.00112613, Final residual = 5.19182e-06, No Iterations 8
ExecutionTime = 8.75 s  ClockTime = 8 s

forces wings output:
    sum of forces:
        pressure : (6.79535 27.2547 -4.1186e-18)
        viscous  : (0.272392 -0.0677907 1.48792e-19)
        porous   : (0 0 0)
    sum of moments:
        pressure : (-1.36273 0.339768 0.980758)
        viscous  : (0.00338954 0.0136196 -4.08966e-05)
        porous   : (0 0 0)

Time = 91

smoothSolver:  Solving for Ux, Initial residual = 0.00216776, Final residual = 1.00942e-05, No Iterations 8
smoothSolver:  Solving for Uy, Initial residual = 0.0010831, Final residual = 6.82712e-06, No Iterations 8
GAMG:  Solving for p, Initial residual = 0.00199246, Final residual = 1.14425e-05, No Iterations 5
time step continuity errors : sum local = 3.34352e-06, global = 2.38812e-16, cumulative = -2.36371e-16
smoothSolver:  Solving for nuTilda, Initial residual = 0.00110399, Final residual = 5.08831e-06, No Iterations 8
ExecutionTime = 8.85 s  ClockTime = 9 s

Time = 92

smoothSolver:  Solving for Ux, Initial residual = 0.0021492, Final residual = 1.00043e-05, No Iterations 8
smoothSolver:  Solving for Uy, Initial residual = 0.00107579, Final residual = 6.7804e-06, No Iterations 8
GAMG:  Solving for p, Initial residual = 0.00197565, Final residual = 1.16193e-05, No Iterations 5
time step continuity errors : sum local = 3.39648e-06, global = 1.61171e-16, cumulative = -7.52005e-17
smoothSolver:  Solving for nuTilda, Initial residual = 0.0010824, Final residual = 4.98757e-06, No Iterations 8
ExecutionTime = 8.94 s  ClockTime = 9 s

Time = 93

smoothSolver:  Solving for Ux, Initial residual = 0.00213122, Final residual = 9.91693e-06, No Iterations 8
smoothSolver:  Solving for Uy, Initial residual = 0.00106829, Final residual = 6.7325e-06, No Iterations 8
GAMG:  Solving for p, Initial residual = 0.0019594, Final residual = 1.1803e-05, No Iterations 5
time step continuity errors : sum local = 3.45211e-06, global = 1.87259e-18, cumulative = -7.3328e-17
smoothSolver:  Solving for nuTilda, Initial residual = 0.00106148, Final residual = 4.88953e-06, No Iterations 8
ExecutionTime = 9.03 s  ClockTime = 9 s

Time = 94

smoothSolver:  Solving for Ux, Initial residual = 0.00211368, Final residual = 9.8315e-06, No Iterations 8
smoothSolver:  Solving for Uy, Initial residual = 0.00106053, Final residual = 6.68314e-06, No Iterations 8
GAMG:  Solving for p, Initial residual = 0.00194413, Final residual = 1.19315e-05, No Iterations 5
time step continuity errors : sum local = 3.49175e-06, global = -2.35094e-16, cumulative = -3.08422e-16
smoothSolver:  Solving for nuTilda, Initial residual = 0.00104125, Final residual = 4.79396e-06, No Iterations 8
ExecutionTime = 9.12 s  ClockTime = 9 s

Time = 95

smoothSolver:  Solving for Ux, Initial residual = 0.00209634, Final residual = 9.74726e-06, No Iterations 8
smoothSolver:  Solving for Uy, Initial residual = 0.00105274, Final residual = 6.6331e-06, No Iterations 8
GAMG:  Solving for p, Initial residual = 0.00192895, Final residual = 1.19904e-05, No Iterations 5
time step continuity errors : sum local = 3.5108e-06, global = 8.72174e-18, cumulative = -2.997e-16
smoothSolver:  Solving for nuTilda, Initial residual = 0.00102141, Final residual = 4.69937e-06, No Iterations 8
ExecutionTime = 9.22 s  ClockTime = 9 s

forces wings output:
    sum of forces:
        pressure : (6.96476 27.9341 -4.14746e-18)
        viscous  : (0.263354 -0.0655425 1.51251e-19)
        porous   : (0 0 0)
    sum of moments:
        pressure : (-1.39671 0.348238 1.01548)
        viscous  : (0.00327712 0.0131677 -3.96882e-05)
        porous   : (0 0 0)

Time = 96

smoothSolver:  Solving for Ux, Initial residual = 0.00207915, Final residual = 9.66375e-06, No Iterations 8
smoothSolver:  Solving for Uy, Initial residual = 0.001045, Final residual = 6.58296e-06, No Iterations 8
GAMG:  Solving for p, Initial residual = 0.0019138, Final residual = 1.2029e-05, No Iterations 5
time step continuity errors : sum local = 3.52326e-06, global = -6.85461e-17, cumulative = -3.68246e-16
smoothSolver:  Solving for nuTilda, Initial residual = 0.00100167, Final residual = 4.60725e-06, No Iterations 8
ExecutionTime = 9.31 s  ClockTime = 9 s

Time = 97

smoothSolver:  Solving for Ux, Initial residual = 0.00206211, Final residual = 9.58096e-06, No Iterations 8
smoothSolver:  Solving for Uy, Initial residual = 0.00103738, Final residual = 6.53299e-06, No Iterations 8
GAMG:  Solving for p, Initial residual = 0.00189864, Final residual = 1.20912e-05, No Iterations 5
time step continuity errors : sum local = 3.54237e-06, global = 2.8274e-16, cumulative = -8.55058e-17
smoothSolver:  Solving for nuTilda, Initial residual = 0.000982452, Final residual = 4.51775e-06, No Iterations 8
ExecutionTime = 9.4 s  ClockTime = 9 s

Time = 98

smoothSolver:  Solving for Ux, Initial residual = 0.00204535, Final residual = 9.49903e-06, No Iterations 8
smoothSolver:  Solving for Uy, Initial residual = 0.00102974, Final residual = 6.48273e-06, No Iterations 8
GAMG:  Solving for p, Initial residual = 0.00188316, Final residual = 1.2165e-05, No Iterations 5
time step continuity errors : sum local = 3.56499e-06, global = 1.88991e-16, cumulative = 1.03486e-16
smoothSolver:  Solving for nuTilda, Initial residual = 0.000963861, Final residual = 4.43078e-06, No Iterations 8
ExecutionTime = 9.5 s  ClockTime = 9 s

Time = 99

smoothSolver:  Solving for Ux, Initial residual = 0.00202891, Final residual = 9.41879e-06, No Iterations 8
smoothSolver:  Solving for Uy, Initial residual = 0.00102199, Final residual = 6.43173e-06, No Iterations 8
GAMG:  Solving for p, Initial residual = 0.00186746, Final residual = 1.22234e-05, No Iterations 5
time step continuity errors : sum local = 3.58357e-06, global = -2.46743e-16, cumulative = -1.43257e-16
smoothSolver:  Solving for nuTilda, Initial residual = 0.000945839, Final residual = 4.34601e-06, No Iterations 8
ExecutionTime = 9.59 s  ClockTime = 9 s

Time = 100

smoothSolver:  Solving for Ux, Initial residual = 0.00201276, Final residual = 9.33979e-06, No Iterations 8
smoothSolver:  Solving for Uy, Initial residual = 0.00101406, Final residual = 6.37985e-06, No Iterations 8
GAMG:  Solving for p, Initial residual = 0.00185028, Final residual = 1.22144e-05, No Iterations 5
time step continuity errors : sum local = 3.58324e-06, global = -2.17318e-16, cumulative = -3.60575e-16
smoothSolver:  Solving for nuTilda, Initial residual = 0.000928387, Final residual = 4.26289e-06, No Iterations 8
ExecutionTime = 9.68 s  ClockTime = 9 s

forces wings output:
    sum of forces:
        pressure : (7.13192 28.6046 -4.17951e-18)
        viscous  : (0.254944 -0.0634471 1.53671e-19)
        porous   : (0 0 0)
    sum of moments:
        pressure : (-1.43023 0.356596 1.04952)
        viscous  : (0.00317236 0.0127472 -3.95825e-05)
        porous   : (0 0 0)

Time = 101

smoothSolver:  Solving for Ux, Initial residual = 0.00199692, Final residual = 9.26221e-06, No Iterations 8
smoothSolver:  Solving for Uy, Initial residual = 0.00100607, Final residual = 6.32733e-06, No Iterations 8
GAMG:  Solving for p, Initial residual = 0.00183396, Final residual = 1.29706e-05, No Iterations 5
time step continuity errors : sum local = 3.80719e-06, global = 5.49208e-18, cumulative = -3.55083e-16
smoothSolver:  Solving for nuTilda, Initial residual = 0.000911217, Final residual = 4.18248e-06, No Iterations 8
ExecutionTime = 9.78 s  ClockTime = 9 s

Time = 102

smoothSolver:  Solving for Ux, Initial residual = 0.00198123, Final residual = 9.1859e-06, No Iterations 8
smoothSolver:  Solving for Uy, Initial residual = 0.000998063, Final residual = 6.27453e-06, No Iterations 8
GAMG:  Solving for p, Initial residual = 0.00181836, Final residual = 1.09499e-05, No Iterations 5
time step continuity errors : sum local = 3.20158e-06, global = -4.79003e-17, cumulative = -4.02984e-16
smoothSolver:  Solving for nuTilda, Initial residual = 0.000894436, Final residual = 4.10451e-06, No Iterations 8
ExecutionTime = 9.87 s  ClockTime = 10 s

Time = 103

smoothSolver:  Solving for Ux, Initial residual = 0.00196579, Final residual = 9.11069e-06, No Iterations 8
smoothSolver:  Solving for Uy, Initial residual = 0.000989917, Final residual = 6.22095e-06, No Iterations 8
GAMG:  Solving for p, Initial residual = 0.00180467, Final residual = 1.08799e-05, No Iterations 5
time step continuity errors : sum local = 3.1829e-06, global = -1.88675e-16, cumulative = -5.91658e-16
smoothSolver:  Solving for nuTilda, Initial residual = 0.000878154, Final residual = 4.02843e-06, No Iterations 8
ExecutionTime = 9.96 s  ClockTime = 10 s

Time = 104

smoothSolver:  Solving for Ux, Initial residual = 0.00195035, Final residual = 9.03525e-06, No Iterations 8
smoothSolver:  Solving for Uy, Initial residual = 0.000981957, Final residual = 6.16783e-06, No Iterations 8
GAMG:  Solving for p, Initial residual = 0.0017899, Final residual = 1.12794e-05, No Iterations 5
time step continuity errors : sum local = 3.30652e-06, global = -2.67657e-16, cumulative = -8.59315e-16
smoothSolver:  Solving for nuTilda, Initial residual = 0.000862482, Final residual = 3.95396e-06, No Iterations 8
ExecutionTime = 10.06 s  ClockTime = 10 s

Time = 105

smoothSolver:  Solving for Ux, Initial residual = 0.00193496, Final residual = 8.96009e-06, No Iterations 8
smoothSolver:  Solving for Uy, Initial residual = 0.000974151, Final residual = 6.11507e-06, No Iterations 8
GAMG:  Solving for p, Initial residual = 0.0017761, Final residual = 1.17903e-05, No Iterations 5
time step continuity errors : sum local = 3.46521e-06, global = 7.41443e-17, cumulative = -7.85171e-16
smoothSolver:  Solving for nuTilda, Initial residual = 0.000847039, Final residual = 3.88169e-06, No Iterations 8
ExecutionTime = 10.16 s  ClockTime = 10 s

forces wings output:
    sum of forces:
        pressure : (7.29542 29.2603 -4.21595e-18)
        viscous  : (0.246916 -0.0614498 1.56233e-19)
        porous   : (0 0 0)
    sum of moments:
        pressure : (-1.46302 0.364771 1.08084)
        viscous  : (0.00307249 0.0123458 -3.87166e-05)
        porous   : (0 0 0)

Time = 106

smoothSolver:  Solving for Ux, Initial residual = 0.0019198, Final residual = 8.88646e-06, No Iterations 8
smoothSolver:  Solving for Uy, Initial residual = 0.00096621, Final residual = 6.06183e-06, No Iterations 8
GAMG:  Solving for p, Initial residual = 0.00176203, Final residual = 1.33087e-05, No Iterations 5
time step continuity errors : sum local = 3.92065e-06, global = -4.7619e-17, cumulative = -8.3279e-16
smoothSolver:  Solving for nuTilda, Initial residual = 0.000831811, Final residual = 3.81168e-06, No Iterations 8
ExecutionTime = 10.25 s  ClockTime = 10 s

Time = 107

smoothSolver:  Solving for Ux, Initial residual = 0.00190497, Final residual = 8.81477e-06, No Iterations 8
smoothSolver:  Solving for Uy, Initial residual = 0.000958039, Final residual = 6.00762e-06, No Iterations 8
GAMG:  Solving for p, Initial residual = 0.00174816, Final residual = 1.10673e-05, No Iterations 5
time step continuity errors : sum local = 3.24411e-06, global = 4.93096e-17, cumulative = -7.8348e-16
smoothSolver:  Solving for nuTilda, Initial residual = 0.000816927, Final residual = 3.74358e-06, No Iterations 8
ExecutionTime = 10.35 s  ClockTime = 10 s

Time = 108

smoothSolver:  Solving for Ux, Initial residual = 0.00189045, Final residual = 8.74426e-06, No Iterations 8
smoothSolver:  Solving for Uy, Initial residual = 0.000949593, Final residual = 5.95219e-06, No Iterations 8
GAMG:  Solving for p, Initial residual = 0.00173391, Final residual = 1.0905e-05, No Iterations 5
time step continuity errors : sum local = 3.19736e-06, global = 6.97815e-17, cumulative = -7.13699e-16
smoothSolver:  Solving for nuTilda, Initial residual = 0.000802429, Final residual = 3.67727e-06, No Iterations 8
ExecutionTime = 10.44 s  ClockTime = 10 s

Time = 109

smoothSolver:  Solving for Ux, Initial residual = 0.00187583, Final residual = 8.67305e-06, No Iterations 8
smoothSolver:  Solving for Uy, Initial residual = 0.000941438, Final residual = 5.89769e-06, No Iterations 8
GAMG:  Solving for p, Initial residual = 0.00171974, Final residual = 1.11801e-05, No Iterations 5
time step continuity errors : sum local = 3.28466e-06, global = 2.18172e-16, cumulative = -4.95526e-16
smoothSolver:  Solving for nuTilda, Initial residual = 0.000788237, Final residual = 3.61266e-06, No Iterations 8
ExecutionTime = 10.53 s  ClockTime = 10 s

Time = 110

smoothSolver:  Solving for Ux, Initial residual = 0.00186108, Final residual = 8.60121e-06, No Iterations 8
smoothSolver:  Solving for Uy, Initial residual = 0.000933558, Final residual = 5.84424e-06, No Iterations 8
GAMG:  Solving for p, Initial residual = 0.00170441, Final residual = 1.16567e-05, No Iterations 5
time step continuity errors : sum local = 3.43465e-06, global = 2.66786e-16, cumulative = -2.28741e-16
smoothSolver:  Solving for nuTilda, Initial residual = 0.000774434, Final residual = 3.54974e-06, No Iterations 8
ExecutionTime = 10.62 s  ClockTime = 10 s

forces wings output:
    sum of forces:
        pressure : (7.45487 29.8998 -4.25505e-18)
        viscous  : (0.23924 -0.0595385 1.58889e-19)
        porous   : (0 0 0)
    sum of moments:
        pressure : (-1.49499 0.372743 1.11139)
        viscous  : (0.00297692 0.011962 -3.83327e-05)
        porous   : (0 0 0)

Time = 111

smoothSolver:  Solving for Ux, Initial residual = 0.00184654, Final residual = 8.5305e-06, No Iterations 8
smoothSolver:  Solving for Uy, Initial residual = 0.000925611, Final residual = 5.79054e-06, No Iterations 8
GAMG:  Solving for p, Initial residual = 0.00169014, Final residual = 1.33988e-05, No Iterations 5
time step continuity errors : sum local = 3.95991e-06, global = 4.68354e-17, cumulative = -1.81905e-16
smoothSolver:  Solving for nuTilda, Initial residual = 0.000761065, Final residual = 3.48827e-06, No Iterations 8
ExecutionTime = 10.72 s  ClockTime = 10 s

Time = 112

smoothSolver:  Solving for Ux, Initial residual = 0.00183233, Final residual = 8.46207e-06, No Iterations 8
smoothSolver:  Solving for Uy, Initial residual = 0.000917284, Final residual = 5.73561e-06, No Iterations 8
GAMG:  Solving for p, Initial residual = 0.00167399, Final residual = 1.10665e-05, No Iterations 5
time step continuity errors : sum local = 3.2539e-06, global = -7.68877e-17, cumulative = -2.58793e-16
smoothSolver:  Solving for nuTilda, Initial residual = 0.000748174, Final residual = 3.42828e-06, No Iterations 8
ExecutionTime = 10.81 s  ClockTime = 10 s

Time = 113

smoothSolver:  Solving for Ux, Initial residual = 0.00181846, Final residual = 8.39484e-06, No Iterations 8
smoothSolver:  Solving for Uy, Initial residual = 0.00090865, Final residual = 5.67926e-06, No Iterations 8
GAMG:  Solving for p, Initial residual = 0.00165876, Final residual = 1.10082e-05, No Iterations 5
time step continuity errors : sum local = 3.23933e-06, global = -7.29387e-17, cumulative = -3.31732e-16
smoothSolver:  Solving for nuTilda, Initial residual = 0.000735726, Final residual = 3.36949e-06, No Iterations 8
ExecutionTime = 10.9 s  ClockTime = 11 s

Time = 114

smoothSolver:  Solving for Ux, Initial residual = 0.00180448, Final residual = 8.32662e-06, No Iterations 8
smoothSolver:  Solving for Uy, Initial residual = 0.000900232, Final residual = 5.62378e-06, No Iterations 8
GAMG:  Solving for p, Initial residual = 0.00164172, Final residual = 1.12708e-05, No Iterations 5
time step continuity errors : sum local = 3.3251e-06, global = 4.19632e-17, cumulative = -2.89768e-16
smoothSolver:  Solving for nuTilda, Initial residual = 0.000723613, Final residual = 3.31206e-06, No Iterations 8
ExecutionTime = 10.99 s  ClockTime = 11 s

Time = 115

smoothSolver:  Solving for Ux, Initial residual = 0.0017904, Final residual = 8.25771e-06, No Iterations 8
smoothSolver:  Solving for Uy, Initial residual = 0.00089218, Final residual = 5.56963e-06, No Iterations 8
GAMG:  Solving for p, Initial residual = 0.00162578, Final residual = 1.26717e-05, No Iterations 5
time step continuity errors : sum local = 3.75019e-06, global = 9.74044e-17, cumulative = -1.92364e-16
smoothSolver:  Solving for nuTilda, Initial residual = 0.000711856, Final residual = 3.25623e-06, No Iterations 8
ExecutionTime = 11.08 s  ClockTime = 11 s

forces wings output:
    sum of forces:
        pressure : (7.6096 30.5204 -4.30583e-18)
        viscous  : (0.232006 -0.0577325 1.61966e-19)
        porous   : (0 0 0)
    sum of moments:
        pressure : (-1.52602 0.38048 1.13891)
        viscous  : (0.00288662 0.0116003 -3.90926e-05)
        porous   : (0 0 0)

Time = 116

smoothSolver:  Solving for Ux, Initial residual = 0.0017764, Final residual = 8.19e-06, No Iterations 8
smoothSolver:  Solving for Uy, Initial residual = 0.000884048, Final residual = 5.51553e-06, No Iterations 8
GAMG:  Solving for p, Initial residual = 0.00160848, Final residual = 1.09642e-05, No Iterations 5
time step continuity errors : sum local = 3.23464e-06, global = 2.21529e-17, cumulative = -1.70211e-16
smoothSolver:  Solving for nuTilda, Initial residual = 0.000700453, Final residual = 3.20192e-06, No Iterations 8
ExecutionTime = 11.19 s  ClockTime = 11 s

Time = 117

smoothSolver:  Solving for Ux, Initial residual = 0.00176269, Final residual = 8.12372e-06, No Iterations 8
smoothSolver:  Solving for Uy, Initial residual = 0.000875693, Final residual = 5.46044e-06, No Iterations 8
GAMG:  Solving for p, Initial residual = 0.00159234, Final residual = 1.11915e-05, No Iterations 5
time step continuity errors : sum local = 3.30772e-06, global = 2.94448e-16, cumulative = 1.24237e-16
smoothSolver:  Solving for nuTilda, Initial residual = 0.000689408, Final residual = 3.14898e-06, No Iterations 8
ExecutionTime = 11.28 s  ClockTime = 11 s

Time = 118

smoothSolver:  Solving for Ux, Initial residual = 0.00174903, Final residual = 8.05787e-06, No Iterations 8
smoothSolver:  Solving for Uy, Initial residual = 0.000867274, Final residual = 5.40531e-06, No Iterations 8
GAMG:  Solving for p, Initial residual = 0.00157462, Final residual = 1.20299e-05, No Iterations 5
time step continuity errors : sum local = 3.56005e-06, global = 7.52441e-17, cumulative = 1.99481e-16
smoothSolver:  Solving for nuTilda, Initial residual = 0.000678792, Final residual = 3.09765e-06, No Iterations 8
ExecutionTime = 11.37 s  ClockTime = 11 s

Time = 119

smoothSolver:  Solving for Ux, Initial residual = 0.00173543, Final residual = 7.99223e-06, No Iterations 8
smoothSolver:  Solving for Uy, Initial residual = 0.000858984, Final residual = 5.3506e-06, No Iterations 8
GAMG:  Solving for p, Initial residual = 0.00155794, Final residual = 1.08716e-05, No Iterations 5
time step continuity errors : sum local = 3.21384e-06, global = 2.28935e-17, cumulative = 2.22375e-16
smoothSolver:  Solving for nuTilda, Initial residual = 0.000668636, Final residual = 3.04785e-06, No Iterations 8
ExecutionTime = 11.46 s  ClockTime = 11 s

Time = 120

smoothSolver:  Solving for Ux, Initial residual = 0.00172183, Final residual = 7.92616e-06, No Iterations 8
smoothSolver:  Solving for Uy, Initial residual = 0.00085071, Final residual = 5.29622e-06, No Iterations 8
GAMG:  Solving for p, Initial residual = 0.00154028, Final residual = 1.10836e-05, No Iterations 5
time step continuity errors : sum local = 3.28392e-06, global = 3.68813e-17, cumulative = 2.59256e-16
smoothSolver:  Solving for nuTilda, Initial residual = 0.000658274, Final residual = 2.99763e-06, No Iterations 8
ExecutionTime = 11.55 s  ClockTime = 11 s

forces wings output:
    sum of forces:
        pressure : (7.75708 31.1119 -4.34699e-18)
        viscous  : (0.225186 -0.0560319 1.64663e-19)
        porous   : (0 0 0)
    sum of moments:
        pressure : (-1.5556 0.387854 1.16286)
        viscous  : (0.00280159 0.0112593 -3.9501e-05)
        porous   : (0 0 0)

Time = 121

smoothSolver:  Solving for Ux, Initial residual = 0.0017082, Final residual = 7.85996e-06, No Iterations 8
smoothSolver:  Solving for Uy, Initial residual = 0.000842683, Final residual = 5.24271e-06, No Iterations 8
GAMG:  Solving for p, Initial residual = 0.00152336, Final residual = 1.25669e-05, No Iterations 5
time step continuity errors : sum local = 3.73445e-06, global = -3.11042e-16, cumulative = -5.17856e-17
smoothSolver:  Solving for nuTilda, Initial residual = 0.00064809, Final residual = 2.94809e-06, No Iterations 8
[...]
    sum of forces:
        pressure : (6.06753 24.3355 -2.94557e-19)
        viscous  : (0.0789342 -0.0195424 -1.87811e-21)
        porous   : (0 0 0)
    sum of moments:
        pressure : (-1.21678 0.303376 3.52907)
        viscous  : (0.000977121 0.00394671 -6.13303e-05)
        porous   : (0 0 0)

Time = 4971

smoothSolver:  Solving for Ux, Initial residual = 5.34987e-06, Final residual = 2.88444e-08, No Iterations 8
smoothSolver:  Solving for Uy, Initial residual = 2.95147e-05, Final residual = 1.72082e-07, No Iterations 8
GAMG:  Solving for p, Initial residual = 3.51863e-05, Final residual = 4.17811e-07, No Iterations 4
time step continuity errors : sum local = 1.29552e-07, global = -8.29198e-17, cumulative = 5.69632e-14
smoothSolver:  Solving for nuTilda, Initial residual = 3.12805e-06, Final residual = 1.2566e-08, No Iterations 8
ExecutionTime = 468.01 s  ClockTime = 469 s

Time = 4972

smoothSolver:  Solving for Ux, Initial residual = 5.3384e-06, Final residual = 2.87924e-08, No Iterations 8
smoothSolver:  Solving for Uy, Initial residual = 2.94154e-05, Final residual = 1.71504e-07, No Iterations 8
GAMG:  Solving for p, Initial residual = 3.50413e-05, Final residual = 4.17149e-07, No Iterations 4
time step continuity errors : sum local = 1.29327e-07, global = 3.38805e-17, cumulative = 5.69971e-14
smoothSolver:  Solving for nuTilda, Initial residual = 3.11682e-06, Final residual = 1.25346e-08, No Iterations 8
ExecutionTime = 468.1 s  ClockTime = 469 s

Time = 4973

smoothSolver:  Solving for Ux, Initial residual = 5.327e-06, Final residual = 2.87406e-08, No Iterations 8
smoothSolver:  Solving for Uy, Initial residual = 2.93154e-05, Final residual = 1.70918e-07, No Iterations 8
GAMG:  Solving for p, Initial residual = 3.48959e-05, Final residual = 4.16569e-07, No Iterations 4
time step continuity errors : sum local = 1.29124e-07, global = -1.48314e-16, cumulative = 5.68488e-14
smoothSolver:  Solving for nuTilda, Initial residual = 3.10554e-06, Final residual = 1.25032e-08, No Iterations 8
ExecutionTime = 468.18 s  ClockTime = 469 s

Time = 4974

smoothSolver:  Solving for Ux, Initial residual = 5.31578e-06, Final residual = 2.86897e-08, No Iterations 8
smoothSolver:  Solving for Uy, Initial residual = 2.92135e-05, Final residual = 1.70324e-07, No Iterations 8
GAMG:  Solving for p, Initial residual = 3.47524e-05, Final residual = 4.16156e-07, No Iterations 4
time step continuity errors : sum local = 1.28973e-07, global = 7.36677e-17, cumulative = 5.69225e-14
smoothSolver:  Solving for nuTilda, Initial residual = 3.09427e-06, Final residual = 1.24719e-08, No Iterations 8
ExecutionTime = 468.27 s  ClockTime = 469 s

Time = 4975

smoothSolver:  Solving for Ux, Initial residual = 5.30466e-06, Final residual = 2.86392e-08, No Iterations 8
smoothSolver:  Solving for Uy, Initial residual = 2.91104e-05, Final residual = 1.69722e-07, No Iterations 8
GAMG:  Solving for p, Initial residual = 3.461e-05, Final residual = 4.15863e-07, No Iterations 4
time step continuity errors : sum local = 1.28859e-07, global = -1.81722e-17, cumulative = 5.69043e-14
smoothSolver:  Solving for nuTilda, Initial residual = 3.08303e-06, Final residual = 1.24406e-08, No Iterations 8
ExecutionTime = 468.36 s  ClockTime = 469 s

forces wings output:
    sum of forces:
        pressure : (6.0703 24.3467 -2.94992e-19)
        viscous  : (0.0788941 -0.0195324 -1.84822e-21)
        porous   : (0 0 0)
    sum of moments:
        pressure : (-1.21733 0.303515 3.53048)
        viscous  : (0.000976621 0.00394471 -6.13477e-05)
        porous   : (0 0 0)

Time = 4976

smoothSolver:  Solving for Ux, Initial residual = 5.29352e-06, Final residual = 2.85888e-08, No Iterations 8
smoothSolver:  Solving for Uy, Initial residual = 2.90066e-05, Final residual = 1.69121e-07, No Iterations 8
GAMG:  Solving for p, Initial residual = 3.44666e-05, Final residual = 4.15492e-07, No Iterations 4
time step continuity errors : sum local = 1.28721e-07, global = -6.20685e-17, cumulative = 5.68422e-14
smoothSolver:  Solving for nuTilda, Initial residual = 3.07176e-06, Final residual = 1.24095e-08, No Iterations 8
ExecutionTime = 468.46 s  ClockTime = 469 s

Time = 4977

smoothSolver:  Solving for Ux, Initial residual = 5.28226e-06, Final residual = 2.85384e-08, No Iterations 8
smoothSolver:  Solving for Uy, Initial residual = 2.89026e-05, Final residual = 1.68516e-07, No Iterations 8
GAMG:  Solving for p, Initial residual = 3.43208e-05, Final residual = 4.1487e-07, No Iterations 4
time step continuity errors : sum local = 1.28505e-07, global = -2.05187e-16, cumulative = 5.6637e-14
smoothSolver:  Solving for nuTilda, Initial residual = 3.06046e-06, Final residual = 1.23781e-08, No Iterations 8
ExecutionTime = 468.55 s  ClockTime = 470 s

Time = 4978

smoothSolver:  Solving for Ux, Initial residual = 5.27101e-06, Final residual = 2.8488e-08, No Iterations 8
smoothSolver:  Solving for Uy, Initial residual = 2.87982e-05, Final residual = 1.67909e-07, No Iterations 8
GAMG:  Solving for p, Initial residual = 3.41729e-05, Final residual = 4.1406e-07, No Iterations 4
time step continuity errors : sum local = 1.28232e-07, global = 6.4249e-17, cumulative = 5.67013e-14
smoothSolver:  Solving for nuTilda, Initial residual = 3.0491e-06, Final residual = 1.23463e-08, No Iterations 8
ExecutionTime = 468.63 s  ClockTime = 470 s

Time = 4979

smoothSolver:  Solving for Ux, Initial residual = 5.2599e-06, Final residual = 2.84376e-08, No Iterations 8
smoothSolver:  Solving for Uy, Initial residual = 2.86931e-05, Final residual = 1.67298e-07, No Iterations 8
GAMG:  Solving for p, Initial residual = 3.4024e-05, Final residual = 4.13263e-07, No Iterations 4
time step continuity errors : sum local = 1.27963e-07, global = 2.545e-16, cumulative = 5.69558e-14
smoothSolver:  Solving for nuTilda, Initial residual = 3.03772e-06, Final residual = 1.23146e-08, No Iterations 8
ExecutionTime = 468.72 s  ClockTime = 470 s

Time = 4980

smoothSolver:  Solving for Ux, Initial residual = 5.24888e-06, Final residual = 2.83875e-08, No Iterations 8
smoothSolver:  Solving for Uy, Initial residual = 2.85871e-05, Final residual = 1.6668e-07, No Iterations 8
GAMG:  Solving for p, Initial residual = 3.38748e-05, Final residual = 4.12587e-07, No Iterations 4
time step continuity errors : sum local = 1.27731e-07, global = -2.0537e-16, cumulative = 5.67504e-14
smoothSolver:  Solving for nuTilda, Initial residual = 3.02633e-06, Final residual = 1.22831e-08, No Iterations 8
ExecutionTime = 468.81 s  ClockTime = 470 s

forces wings output:
    sum of forces:
        pressure : (6.07303 24.3576 -2.95376e-19)
        viscous  : (0.0788542 -0.0195225 -1.82145e-21)
        porous   : (0 0 0)
    sum of moments:
        pressure : (-1.21788 0.303652 3.53192)
        viscous  : (0.000976123 0.00394271 -6.13646e-05)
        porous   : (0 0 0)

Time = 4981

smoothSolver:  Solving for Ux, Initial residual = 5.23789e-06, Final residual = 2.83376e-08, No Iterations 8
smoothSolver:  Solving for Uy, Initial residual = 2.84801e-05, Final residual = 1.66058e-07, No Iterations 8
GAMG:  Solving for p, Initial residual = 3.37255e-05, Final residual = 9.99214e-07, No Iterations 3
time step continuity errors : sum local = 3.07128e-07, global = 2.61438e-16, cumulative = 5.70118e-14
smoothSolver:  Solving for nuTilda, Initial residual = 3.01489e-06, Final residual = 1.22516e-08, No Iterations 8
ExecutionTime = 468.91 s  ClockTime = 470 s

Time = 4982

smoothSolver:  Solving for Ux, Initial residual = 5.2235e-06, Final residual = 2.82633e-08, No Iterations 8
smoothSolver:  Solving for Uy, Initial residual = 2.83898e-05, Final residual = 1.65495e-07, No Iterations 8
GAMG:  Solving for p, Initial residual = 3.35932e-05, Final residual = 9.7485e-07, No Iterations 3
time step continuity errors : sum local = 3.01784e-07, global = -2.23455e-16, cumulative = 5.67884e-14
smoothSolver:  Solving for nuTilda, Initial residual = 3.00338e-06, Final residual = 1.222e-08, No Iterations 8
ExecutionTime = 469 s  ClockTime = 470 s

Time = 4983

smoothSolver:  Solving for Ux, Initial residual = 5.2122e-06, Final residual = 2.82126e-08, No Iterations 8
smoothSolver:  Solving for Uy, Initial residual = 2.82732e-05, Final residual = 1.64825e-07, No Iterations 8
GAMG:  Solving for p, Initial residual = 3.34875e-05, Final residual = 3.97446e-07, No Iterations 4
time step continuity errors : sum local = 1.23362e-07, global = -2.47851e-16, cumulative = 5.65405e-14
smoothSolver:  Solving for nuTilda, Initial residual = 2.99185e-06, Final residual = 1.21885e-08, No Iterations 8
ExecutionTime = 469.09 s  ClockTime = 470 s

Time = 4984

smoothSolver:  Solving for Ux, Initial residual = 5.20856e-06, Final residual = 2.82123e-08, No Iterations 8
smoothSolver:  Solving for Uy, Initial residual = 2.81216e-05, Final residual = 1.64027e-07, No Iterations 8
GAMG:  Solving for p, Initial residual = 3.33605e-05, Final residual = 8.94855e-07, No Iterations 3
time step continuity errors : sum local = 2.77801e-07, global = -1.40375e-16, cumulative = 5.64002e-14
smoothSolver:  Solving for nuTilda, Initial residual = 2.98042e-06, Final residual = 1.21557e-08, No Iterations 8
ExecutionTime = 469.18 s  ClockTime = 470 s

Time = 4985

smoothSolver:  Solving for Ux, Initial residual = 5.19446e-06, Final residual = 2.81379e-08, No Iterations 8
smoothSolver:  Solving for Uy, Initial residual = 2.80393e-05, Final residual = 1.63472e-07, No Iterations 8
GAMG:  Solving for p, Initial residual = 3.31829e-05, Final residual = 8.49803e-07, No Iterations 3
time step continuity errors : sum local = 2.64195e-07, global = -1.42047e-16, cumulative = 5.62581e-14
smoothSolver:  Solving for nuTilda, Initial residual = 2.96886e-06, Final residual = 1.21229e-08, No Iterations 8
ExecutionTime = 469.26 s  ClockTime = 470 s

forces wings output:
    sum of forces:
        pressure : (6.07557 24.3678 -2.95723e-19)
        viscous  : (0.0788146 -0.0195126 -1.79678e-21)
        porous   : (0 0 0)
    sum of moments:
        pressure : (-1.21839 0.303779 3.53331)
        viscous  : (0.000975629 0.00394073 -6.13808e-05)
        porous   : (0 0 0)

Time = 4986

smoothSolver:  Solving for Ux, Initial residual = 5.17858e-06, Final residual = 2.80588e-08, No Iterations 8
smoothSolver:  Solving for Uy, Initial residual = 2.79534e-05, Final residual = 1.6293e-07, No Iterations 8
GAMG:  Solving for p, Initial residual = 3.30023e-05, Final residual = 9.95288e-07, No Iterations 3
time step continuity errors : sum local = 3.06559e-07, global = 8.94975e-17, cumulative = 5.63476e-14
smoothSolver:  Solving for nuTilda, Initial residual = 2.95717e-06, Final residual = 1.20907e-08, No Iterations 8
ExecutionTime = 469.36 s  ClockTime = 470 s

Time = 4987

smoothSolver:  Solving for Ux, Initial residual = 5.1719e-06, Final residual = 2.80422e-08, No Iterations 8
smoothSolver:  Solving for Uy, Initial residual = 2.78092e-05, Final residual = 1.62179e-07, No Iterations 8
GAMG:  Solving for p, Initial residual = 3.29209e-05, Final residual = 9.2711e-07, No Iterations 3
time step continuity errors : sum local = 2.87602e-07, global = -4.28859e-17, cumulative = 5.63047e-14
smoothSolver:  Solving for nuTilda, Initial residual = 2.94565e-06, Final residual = 1.20581e-08, No Iterations 8
ExecutionTime = 469.45 s  ClockTime = 470 s

Time = 4988

smoothSolver:  Solving for Ux, Initial residual = 5.16298e-06, Final residual = 2.80043e-08, No Iterations 8
smoothSolver:  Solving for Uy, Initial residual = 2.76947e-05, Final residual = 1.61512e-07, No Iterations 8
GAMG:  Solving for p, Initial residual = 3.27788e-05, Final residual = 8.61258e-07, No Iterations 3
time step continuity errors : sum local = 2.67715e-07, global = 5.54109e-17, cumulative = 5.63601e-14
smoothSolver:  Solving for nuTilda, Initial residual = 2.93413e-06, Final residual = 1.20253e-08, No Iterations 8
ExecutionTime = 469.53 s  ClockTime = 471 s

Time = 4989

smoothSolver:  Solving for Ux, Initial residual = 5.15064e-06, Final residual = 2.79413e-08, No Iterations 8
smoothSolver:  Solving for Uy, Initial residual = 2.75951e-05, Final residual = 1.60889e-07, No Iterations 8
GAMG:  Solving for p, Initial residual = 3.25853e-05, Final residual = 8.44546e-07, No Iterations 3
time step continuity errors : sum local = 2.62698e-07, global = -1.83436e-16, cumulative = 5.61767e-14
smoothSolver:  Solving for nuTilda, Initial residual = 2.92257e-06, Final residual = 1.19925e-08, No Iterations 8
ExecutionTime = 469.62 s  ClockTime = 471 s

Time = 4990

smoothSolver:  Solving for Ux, Initial residual = 5.13773e-06, Final residual = 2.78813e-08, No Iterations 8
smoothSolver:  Solving for Uy, Initial residual = 2.74944e-05, Final residual = 1.60283e-07, No Iterations 8
GAMG:  Solving for p, Initial residual = 3.24083e-05, Final residual = 9.72211e-07, No Iterations 3
time step continuity errors : sum local = 2.99073e-07, global = -2.29463e-16, cumulative = 5.59472e-14
smoothSolver:  Solving for nuTilda, Initial residual = 2.911e-06, Final residual = 1.19602e-08, No Iterations 8
ExecutionTime = 469.7 s  ClockTime = 471 s

forces wings output:
    sum of forces:
        pressure : (6.07838 24.379 -2.95956e-19)
        viscous  : (0.0787752 -0.0195027 -1.77946e-21)
        porous   : (0 0 0)
    sum of moments:
        pressure : (-1.21895 0.303919 3.5349)
        viscous  : (0.000975137 0.00393876 -6.13964e-05)
        porous   : (0 0 0)

Time = 4991

smoothSolver:  Solving for Ux, Initial residual = 5.13073e-06, Final residual = 2.78615e-08, No Iterations 8
smoothSolver:  Solving for Uy, Initial residual = 2.73564e-05, Final residual = 1.59523e-07, No Iterations 8
GAMG:  Solving for p, Initial residual = 3.22969e-05, Final residual = 9.70008e-07, No Iterations 3
time step continuity errors : sum local = 2.9864e-07, global = 1.21633e-16, cumulative = 5.60689e-14
smoothSolver:  Solving for nuTilda, Initial residual = 2.89953e-06, Final residual = 1.19279e-08, No Iterations 8
ExecutionTime = 469.8 s  ClockTime = 471 s

Time = 4992

smoothSolver:  Solving for Ux, Initial residual = 5.12144e-06, Final residual = 2.78212e-08, No Iterations 8
smoothSolver:  Solving for Uy, Initial residual = 2.72447e-05, Final residual = 1.58865e-07, No Iterations 8
GAMG:  Solving for p, Initial residual = 3.21438e-05, Final residual = 8.82529e-07, No Iterations 3
time step continuity errors : sum local = 2.73971e-07, global = 1.45793e-16, cumulative = 5.62147e-14
smoothSolver:  Solving for nuTilda, Initial residual = 2.88797e-06, Final residual = 1.18955e-08, No Iterations 8
ExecutionTime = 469.88 s  ClockTime = 471 s

Time = 4993

smoothSolver:  Solving for Ux, Initial residual = 5.10721e-06, Final residual = 2.77468e-08, No Iterations 8
smoothSolver:  Solving for Uy, Initial residual = 2.71551e-05, Final residual = 1.58301e-07, No Iterations 8
GAMG:  Solving for p, Initial residual = 3.19304e-05, Final residual = 8.72623e-07, No Iterations 3
time step continuity errors : sum local = 2.70926e-07, global = -1.8616e-16, cumulative = 5.60285e-14
smoothSolver:  Solving for nuTilda, Initial residual = 2.87631e-06, Final residual = 1.18636e-08, No Iterations 8
ExecutionTime = 469.97 s  ClockTime = 471 s

Time = 4994

smoothSolver:  Solving for Ux, Initial residual = 5.09516e-06, Final residual = 2.76877e-08, No Iterations 8
smoothSolver:  Solving for Uy, Initial residual = 2.70435e-05, Final residual = 1.57652e-07, No Iterations 8
GAMG:  Solving for p, Initial residual = 3.17687e-05, Final residual = 8.31032e-07, No Iterations 3
time step continuity errors : sum local = 2.58541e-07, global = 1.49074e-17, cumulative = 5.60434e-14
smoothSolver:  Solving for nuTilda, Initial residual = 2.86465e-06, Final residual = 1.1832e-08, No Iterations 8
ExecutionTime = 470.05 s  ClockTime = 471 s

Time = 4995

smoothSolver:  Solving for Ux, Initial residual = 5.0849e-06, Final residual = 2.76435e-08, No Iterations 8
smoothSolver:  Solving for Uy, Initial residual = 2.69239e-05, Final residual = 1.56959e-07, No Iterations 8
GAMG:  Solving for p, Initial residual = 3.16253e-05, Final residual = 9.4652e-07, No Iterations 3
time step continuity errors : sum local = 2.90933e-07, global = 1.88945e-16, cumulative = 5.62324e-14
smoothSolver:  Solving for nuTilda, Initial residual = 2.85299e-06, Final residual = 1.18006e-08, No Iterations 8
ExecutionTime = 470.14 s  ClockTime = 471 s

forces wings output:
    sum of forces:
        pressure : (6.08098 24.3895 -2.96217e-19)
        viscous  : (0.0787362 -0.019493 -1.7603e-21)
        porous   : (0 0 0)
    sum of moments:
        pressure : (-1.21947 0.304049 3.53643)
        viscous  : (0.000974649 0.00393681 -6.14116e-05)
        porous   : (0 0 0)

Time = 4996

smoothSolver:  Solving for Ux, Initial residual = 5.08021e-06, Final residual = 2.76374e-08, No Iterations 8
smoothSolver:  Solving for Uy, Initial residual = 2.67722e-05, Final residual = 1.56108e-07, No Iterations 8
GAMG:  Solving for p, Initial residual = 3.15197e-05, Final residual = 9.46827e-07, No Iterations 3
time step continuity errors : sum local = 2.91119e-07, global = 1.15956e-16, cumulative = 5.63483e-14
smoothSolver:  Solving for nuTilda, Initial residual = 2.84135e-06, Final residual = 1.17681e-08, No Iterations 8
ExecutionTime = 470.23 s  ClockTime = 471 s

Time = 4997

smoothSolver:  Solving for Ux, Initial residual = 5.07119e-06, Final residual = 2.75992e-08, No Iterations 8
smoothSolver:  Solving for Uy, Initial residual = 2.66605e-05, Final residual = 1.55436e-07, No Iterations 8
GAMG:  Solving for p, Initial residual = 3.13571e-05, Final residual = 9.36375e-07, No Iterations 3
time step continuity errors : sum local = 2.88291e-07, global = -2.21462e-16, cumulative = 5.61269e-14
smoothSolver:  Solving for nuTilda, Initial residual = 2.82968e-06, Final residual = 1.17354e-08, No Iterations 8
ExecutionTime = 470.31 s  ClockTime = 471 s

Time = 4998

smoothSolver:  Solving for Ux, Initial residual = 5.05782e-06, Final residual = 2.75321e-08, No Iterations 8
smoothSolver:  Solving for Uy, Initial residual = 2.65718e-05, Final residual = 1.54895e-07, No Iterations 8
GAMG:  Solving for p, Initial residual = 3.11525e-05, Final residual = 8.43556e-07, No Iterations 3
time step continuity errors : sum local = 2.61993e-07, global = -3.1267e-17, cumulative = 5.60956e-14
smoothSolver:  Solving for nuTilda, Initial residual = 2.81804e-06, Final residual = 1.17025e-08, No Iterations 8
ExecutionTime = 470.4 s  ClockTime = 471 s

Time = 4999

smoothSolver:  Solving for Ux, Initial residual = 5.04272e-06, Final residual = 2.74513e-08, No Iterations 8
smoothSolver:  Solving for Uy, Initial residual = 2.64787e-05, Final residual = 1.54318e-07, No Iterations 8
GAMG:  Solving for p, Initial residual = 3.09461e-05, Final residual = 8.5256e-07, No Iterations 3
time step continuity errors : sum local = 2.64702e-07, global = -1.19834e-16, cumulative = 5.59758e-14
smoothSolver:  Solving for nuTilda, Initial residual = 2.80633e-06, Final residual = 1.16703e-08, No Iterations 8
ExecutionTime = 470.48 s  ClockTime = 471 s

Time = 5000

smoothSolver:  Solving for Ux, Initial residual = 5.03402e-06, Final residual = 2.74151e-08, No Iterations 8
smoothSolver:  Solving for Uy, Initial residual = 2.63395e-05, Final residual = 1.53538e-07, No Iterations 8
GAMG:  Solving for p, Initial residual = 3.08205e-05, Final residual = 8.14868e-07, No Iterations 3
time step continuity errors : sum local = 2.53514e-07, global = 7.62921e-17, cumulative = 5.6052e-14
smoothSolver:  Solving for nuTilda, Initial residual = 2.79461e-06, Final residual = 1.1638e-08, No Iterations 8
ExecutionTime = 470.71 s  ClockTime = 472 s

forces wings output:
    sum of forces:
        pressure : (6.08335 24.399 -2.96472e-19)
        viscous  : (0.0786974 -0.0194833 -1.74129e-21)
        porous   : (0 0 0)
    sum of moments:
        pressure : (-1.21995 0.304167 3.53787)
        viscous  : (0.000974166 0.00393487 -6.14263e-05)
        porous   : (0 0 0)

End

