/*---------------------------------------------------------------------------*\
| =========                 |                                                 |
| \\      /  F ield         | OpenFOAM: The Open Source CFD Toolbox           |
|  \\    /   O peration     | Version:  2.3.0                                 |
|   \\  /    A nd           | Web:      www.OpenFOAM.org                      |
|    \\/     M anipulation  |                                                 |
\*---------------------------------------------------------------------------*/
Build  : 2.3.0-f5222ca19ce6
Exec   : simpleFoam -case Runs/first_flatplate_300_6/case
Date   : Jan 11 2015
Time   : 12:49:54
Host   : "lordvon-XPS-8300"
PID    : 5917
Case   : Runs/first_flatplate_300_6/case
nProcs : 1
sigFpe : Enabling floating point exception trapping (FOAM_SIGFPE).
fileModificationChecking : Monitoring run-time modified files using timeStampMaster
allowSystemOperations : Disallowing user-supplied system call operations

// * * * * * * * * * * * * * * * * * * * * * * * * * * * * * * * * * * * * * //
Create time

Create mesh for time = 0

Reading field p

Reading field U

Reading/calculating face flux field phi

Selecting incompressible transport model Newtonian
Selecting RAS turbulence model SpalartAllmaras
SpalartAllmarasCoeffs
{
    sigmaNut        0.66666;
    kappa           0.41;
    Cb1             0.1355;
    Cb2             0.622;
    Cw2             0.3;
    Cw3             2;
    Cv1             7.1;
    Cv2             5;
}

    Employing Ashford correction
No finite volume options present


SIMPLE: convergence criteria
    field p	 tolerance 1e-12
    field U	 tolerance 1e-12
    field nuTilda	 tolerance 1e-12


Starting time loop

forces wings:
    Not including porosity effects

Time = 1

smoothSolver:  Solving for Ux, Initial residual = 1, Final residual = 0.00606656, No Iterations 6
smoothSolver:  Solving for Uy, Initial residual = 1, Final residual = 0.0082753, No Iterations 4
GAMG:  Solving for p, Initial residual = 1, Final residual = 0.0085743, No Iterations 9
time step continuity errors : sum local = 0.000815214, global = -1.78129e-16, cumulative = -1.78129e-16
smoothSolver:  Solving for nuTilda, Initial residual = 1, Final residual = 0.00395389, No Iterations 4
ExecutionTime = 0.35 s  ClockTime = 0 s

Time = 2

smoothSolver:  Solving for Ux, Initial residual = 0.512762, Final residual = 0.0023634, No Iterations 8
smoothSolver:  Solving for Uy, Initial residual = 0.672088, Final residual = 0.00372859, No Iterations 8
GAMG:  Solving for p, Initial residual = 0.737045, Final residual = 0.00687954, No Iterations 5
time step continuity errors : sum local = 0.00131331, global = 9.50127e-17, cumulative = -8.31163e-17
smoothSolver:  Solving for nuTilda, Initial residual = 0.186823, Final residual = 0.000723698, No Iterations 6
ExecutionTime = 0.43 s  ClockTime = 0 s

Time = 3

smoothSolver:  Solving for Ux, Initial residual = 0.22016, Final residual = 0.00101003, No Iterations 8
smoothSolver:  Solving for Uy, Initial residual = 0.246751, Final residual = 0.00134872, No Iterations 8
GAMG:  Solving for p, Initial residual = 0.551075, Final residual = 0.00404117, No Iterations 8
time step continuity errors : sum local = 0.00105877, global = 6.34197e-17, cumulative = -1.96965e-17
smoothSolver:  Solving for nuTilda, Initial residual = 0.0957176, Final residual = 0.00087295, No Iterations 6
ExecutionTime = 0.52 s  ClockTime = 0 s

Time = 4

smoothSolver:  Solving for Ux, Initial residual = 0.0902792, Final residual = 0.00032003, No Iterations 8
smoothSolver:  Solving for Uy, Initial residual = 0.0795274, Final residual = 0.000408496, No Iterations 8
GAMG:  Solving for p, Initial residual = 0.421158, Final residual = 0.00364998, No Iterations 6
time step continuity errors : sum local = 0.00100114, global = -1.38986e-16, cumulative = -1.58682e-16
smoothSolver:  Solving for nuTilda, Initial residual = 0.072258, Final residual = 0.000213525, No Iterations 8
ExecutionTime = 0.61 s  ClockTime = 0 s

Time = 5

smoothSolver:  Solving for Ux, Initial residual = 0.172006, Final residual = 0.00080179, No Iterations 8
smoothSolver:  Solving for Uy, Initial residual = 0.230595, Final residual = 0.00123263, No Iterations 8
GAMG:  Solving for p, Initial residual = 0.355602, Final residual = 0.00265857, No Iterations 6
time step continuity errors : sum local = 0.000785358, global = 9.01523e-17, cumulative = -6.85302e-17
smoothSolver:  Solving for nuTilda, Initial residual = 0.0589947, Final residual = 0.000195416, No Iterations 8
ExecutionTime = 0.7 s  ClockTime = 0 s

forces wings output:
    sum of forces:
        pressure : (-76.2601 -725.566 3.34023e-19)
        viscous  : (0.532102 -0.0392995 4.15789e-21)
        porous   : (0 0 0)
    sum of moments:
        pressure : (36.2783 -3.813 -183.471)
        viscous  : (0.00196497 0.0266051 0.00418891)
        porous   : (0 0 0)

Time = 6

smoothSolver:  Solving for Ux, Initial residual = 0.132972, Final residual = 0.000574254, No Iterations 8
smoothSolver:  Solving for Uy, Initial residual = 0.21248, Final residual = 0.00112535, No Iterations 8
GAMG:  Solving for p, Initial residual = 0.283073, Final residual = 0.00227877, No Iterations 8
time step continuity errors : sum local = 0.000701051, global = 1.31737e-16, cumulative = 6.32071e-17
smoothSolver:  Solving for nuTilda, Initial residual = 0.0489103, Final residual = 0.000170691, No Iterations 8
ExecutionTime = 0.79 s  ClockTime = 0 s

Time = 7

smoothSolver:  Solving for Ux, Initial residual = 0.0968119, Final residual = 0.000350629, No Iterations 8
smoothSolver:  Solving for Uy, Initial residual = 0.176943, Final residual = 0.000907456, No Iterations 8
GAMG:  Solving for p, Initial residual = 0.220306, Final residual = 0.00201671, No Iterations 5
time step continuity errors : sum local = 0.000620593, global = 2.91011e-16, cumulative = 3.54218e-16
smoothSolver:  Solving for nuTilda, Initial residual = 0.0409914, Final residual = 0.000147894, No Iterations 8
ExecutionTime = 0.88 s  ClockTime = 0 s

Time = 8

smoothSolver:  Solving for Ux, Initial residual = 0.10661, Final residual = 0.00046299, No Iterations 8
smoothSolver:  Solving for Uy, Initial residual = 0.180112, Final residual = 0.000944233, No Iterations 8
GAMG:  Solving for p, Initial residual = 0.227248, Final residual = 0.00142936, No Iterations 6
time step continuity errors : sum local = 0.000455665, global = 1.52962e-16, cumulative = 5.0718e-16
smoothSolver:  Solving for nuTilda, Initial residual = 0.0347873, Final residual = 0.000128237, No Iterations 8
ExecutionTime = 0.97 s  ClockTime = 1 s

Time = 9

smoothSolver:  Solving for Ux, Initial residual = 0.0563842, Final residual = 0.000213231, No Iterations 8
smoothSolver:  Solving for Uy, Initial residual = 0.0491571, Final residual = 0.000250489, No Iterations 8
GAMG:  Solving for p, Initial residual = 0.186319, Final residual = 0.00145927, No Iterations 7
time step continuity errors : sum local = 0.00046707, global = 1.7807e-17, cumulative = 5.24987e-16
smoothSolver:  Solving for nuTilda, Initial residual = 0.0299868, Final residual = 0.000112613, No Iterations 8
ExecutionTime = 1.05 s  ClockTime = 1 s

Time = 10

smoothSolver:  Solving for Ux, Initial residual = 0.0504152, Final residual = 0.000186393, No Iterations 8
smoothSolver:  Solving for Uy, Initial residual = 0.0782318, Final residual = 0.000397214, No Iterations 8
GAMG:  Solving for p, Initial residual = 0.158216, Final residual = 0.00119293, No Iterations 5
time step continuity errors : sum local = 0.000380365, global = 8.9611e-17, cumulative = 6.14598e-16
smoothSolver:  Solving for nuTilda, Initial residual = 0.0261881, Final residual = 0.000100079, No Iterations 8
ExecutionTime = 1.14 s  ClockTime = 1 s

forces wings output:
    sum of forces:
        pressure : (-45.6448 -434.282 9.87971e-20)
        viscous  : (0.512071 -0.068387 4.35944e-21)
        porous   : (0 0 0)
    sum of moments:
        pressure : (21.7141 -2.28224 -112.538)
        viscous  : (0.00341935 0.0256036 -0.00370673)
        porous   : (0 0 0)

Time = 11

smoothSolver:  Solving for Ux, Initial residual = 0.052263, Final residual = 0.000216079, No Iterations 8
smoothSolver:  Solving for Uy, Initial residual = 0.105229, Final residual = 0.000537395, No Iterations 8
GAMG:  Solving for p, Initial residual = 0.152121, Final residual = 0.00109239, No Iterations 6
time step continuity errors : sum local = 0.000351755, global = -5.27312e-18, cumulative = 6.09325e-16
smoothSolver:  Solving for nuTilda, Initial residual = 0.0230217, Final residual = 8.96016e-05, No Iterations 8
ExecutionTime = 1.23 s  ClockTime = 1 s

Time = 12

smoothSolver:  Solving for Ux, Initial residual = 0.03278, Final residual = 0.000110136, No Iterations 8
smoothSolver:  Solving for Uy, Initial residual = 0.0280857, Final residual = 0.000124118, No Iterations 8
GAMG:  Solving for p, Initial residual = 0.1187, Final residual = 0.000816006, No Iterations 7
time step continuity errors : sum local = 0.00025901, global = 8.52876e-17, cumulative = 6.94613e-16
smoothSolver:  Solving for nuTilda, Initial residual = 0.0204439, Final residual = 8.09231e-05, No Iterations 8
ExecutionTime = 1.32 s  ClockTime = 1 s

Time = 13

smoothSolver:  Solving for Ux, Initial residual = 0.038194, Final residual = 0.000135621, No Iterations 8
smoothSolver:  Solving for Uy, Initial residual = 0.0681598, Final residual = 0.000336639, No Iterations 8
GAMG:  Solving for p, Initial residual = 0.10667, Final residual = 0.00102179, No Iterations 5
time step continuity errors : sum local = 0.000323433, global = 1.0831e-17, cumulative = 7.05444e-16
smoothSolver:  Solving for nuTilda, Initial residual = 0.0182636, Final residual = 7.35777e-05, No Iterations 8
ExecutionTime = 1.4 s  ClockTime = 1 s

Time = 14

smoothSolver:  Solving for Ux, Initial residual = 0.0342969, Final residual = 0.000130956, No Iterations 8
smoothSolver:  Solving for Uy, Initial residual = 0.04986, Final residual = 0.000247173, No Iterations 8
GAMG:  Solving for p, Initial residual = 0.104852, Final residual = 0.000655478, No Iterations 6
time step continuity errors : sum local = 0.00020806, global = 1.38351e-16, cumulative = 8.43795e-16
smoothSolver:  Solving for nuTilda, Initial residual = 0.0164228, Final residual = 6.73838e-05, No Iterations 8
ExecutionTime = 1.49 s  ClockTime = 1 s

Time = 15

smoothSolver:  Solving for Ux, Initial residual = 0.0230782, Final residual = 7.86165e-05, No Iterations 8
smoothSolver:  Solving for Uy, Initial residual = 0.0153789, Final residual = 6.52394e-05, No Iterations 8
GAMG:  Solving for p, Initial residual = 0.0796912, Final residual = 0.000597981, No Iterations 6
time step continuity errors : sum local = 0.000191128, global = 2.35552e-16, cumulative = 1.07935e-15
smoothSolver:  Solving for nuTilda, Initial residual = 0.014854, Final residual = 6.22491e-05, No Iterations 8
ExecutionTime = 1.57 s  ClockTime = 1 s

forces wings output:
    sum of forces:
        pressure : (-15.506 -147.53 -5.73726e-20)
        viscous  : (0.497418 -0.0637464 2.57123e-21)
        porous   : (0 0 0)
    sum of moments:
        pressure : (7.3765 -0.775301 -40.3232)
        viscous  : (0.00318732 0.0248709 -0.00299258)
        porous   : (0 0 0)

Time = 16

smoothSolver:  Solving for Ux, Initial residual = 0.0223466, Final residual = 8.13023e-05, No Iterations 8
smoothSolver:  Solving for Uy, Initial residual = 0.038951, Final residual = 0.000188766, No Iterations 8
GAMG:  Solving for p, Initial residual = 0.0763061, Final residual = 0.000442248, No Iterations 6
time step continuity errors : sum local = 0.00014024, global = 1.58381e-16, cumulative = 1.23773e-15
smoothSolver:  Solving for nuTilda, Initial residual = 0.0135335, Final residual = 5.79647e-05, No Iterations 8
ExecutionTime = 1.66 s  ClockTime = 1 s

Time = 17

smoothSolver:  Solving for Ux, Initial residual = 0.0165237, Final residual = 5.79853e-05, No Iterations 8
smoothSolver:  Solving for Uy, Initial residual = 0.0287183, Final residual = 0.000135747, No Iterations 8
GAMG:  Solving for p, Initial residual = 0.0728194, Final residual = 0.000359086, No Iterations 6
time step continuity errors : sum local = 0.00011499, global = 6.10944e-17, cumulative = 1.29882e-15
smoothSolver:  Solving for nuTilda, Initial residual = 0.012418, Final residual = 5.42881e-05, No Iterations 8
ExecutionTime = 1.75 s  ClockTime = 1 s

Time = 18

smoothSolver:  Solving for Ux, Initial residual = 0.013195, Final residual = 4.16834e-05, No Iterations 8
smoothSolver:  Solving for Uy, Initial residual = 0.0174165, Final residual = 7.52148e-05, No Iterations 8
GAMG:  Solving for p, Initial residual = 0.0550217, Final residual = 0.000348323, No Iterations 5
time step continuity errors : sum local = 0.000110109, global = -1.47839e-16, cumulative = 1.15098e-15
smoothSolver:  Solving for nuTilda, Initial residual = 0.011425, Final residual = 5.09514e-05, No Iterations 8
ExecutionTime = 1.83 s  ClockTime = 1 s

Time = 19

smoothSolver:  Solving for Ux, Initial residual = 0.0146423, Final residual = 5.23741e-05, No Iterations 8
smoothSolver:  Solving for Uy, Initial residual = 0.0248341, Final residual = 0.000115422, No Iterations 8
GAMG:  Solving for p, Initial residual = 0.0540587, Final residual = 0.000348552, No Iterations 6
time step continuity errors : sum local = 0.000109689, global = 8.93607e-17, cumulative = 1.24034e-15
smoothSolver:  Solving for nuTilda, Initial residual = 0.010578, Final residual = 4.79202e-05, No Iterations 8
ExecutionTime = 1.92 s  ClockTime = 1 s

Time = 20

smoothSolver:  Solving for Ux, Initial residual = 0.0118752, Final residual = 4.29036e-05, No Iterations 8
smoothSolver:  Solving for Uy, Initial residual = 0.0118649, Final residual = 5.49014e-05, No Iterations 8
GAMG:  Solving for p, Initial residual = 0.0481083, Final residual = 0.000237649, No Iterations 6
time step continuity errors : sum local = 7.44322e-05, global = -6.08793e-17, cumulative = 1.17947e-15
smoothSolver:  Solving for nuTilda, Initial residual = 0.00982403, Final residual = 4.51719e-05, No Iterations 8
ExecutionTime = 2.01 s  ClockTime = 2 s

forces wings output:
    sum of forces:
        pressure : (-2.38672 -22.7081 -8.23628e-20)
        viscous  : (0.48353 -0.0555038 1.00332e-21)
        porous   : (0 0 0)
    sum of moments:
        pressure : (1.13541 -0.119336 -8.22089)
        viscous  : (0.00277519 0.0241765 -0.00127781)
        porous   : (0 0 0)

Time = 21

smoothSolver:  Solving for Ux, Initial residual = 0.0106013, Final residual = 4.06892e-05, No Iterations 8
smoothSolver:  Solving for Uy, Initial residual = 0.0114298, Final residual = 5.19876e-05, No Iterations 8
GAMG:  Solving for p, Initial residual = 0.036336, Final residual = 0.000342984, No Iterations 4
time step continuity errors : sum local = 0.000108169, global = -1.71138e-16, cumulative = 1.00833e-15
smoothSolver:  Solving for nuTilda, Initial residual = 0.00916537, Final residual = 4.2706e-05, No Iterations 8
ExecutionTime = 2.09 s  ClockTime = 2 s

Time = 22

smoothSolver:  Solving for Ux, Initial residual = 0.00921363, Final residual = 3.67587e-05, No Iterations 8
smoothSolver:  Solving for Uy, Initial residual = 0.0147379, Final residual = 6.86731e-05, No Iterations 8
GAMG:  Solving for p, Initial residual = 0.0363249, Final residual = 0.000286748, No Iterations 5
time step continuity errors : sum local = 9.03087e-05, global = 3.88728e-17, cumulative = 1.0472e-15
smoothSolver:  Solving for nuTilda, Initial residual = 0.00859761, Final residual = 4.04775e-05, No Iterations 8
ExecutionTime = 2.17 s  ClockTime = 2 s

Time = 23

smoothSolver:  Solving for Ux, Initial residual = 0.00673018, Final residual = 2.52747e-05, No Iterations 8
smoothSolver:  Solving for Uy, Initial residual = 0.00690144, Final residual = 3.12374e-05, No Iterations 8
GAMG:  Solving for p, Initial residual = 0.0320629, Final residual = 0.000220123, No Iterations 5
time step continuity errors : sum local = 6.97129e-05, global = -9.94092e-17, cumulative = 9.4779e-16
smoothSolver:  Solving for nuTilda, Initial residual = 0.00810187, Final residual = 3.84253e-05, No Iterations 8
ExecutionTime = 2.25 s  ClockTime = 2 s

Time = 24

smoothSolver:  Solving for Ux, Initial residual = 0.00667925, Final residual = 2.4174e-05, No Iterations 8
smoothSolver:  Solving for Uy, Initial residual = 0.00909674, Final residual = 4.23056e-05, No Iterations 8
GAMG:  Solving for p, Initial residual = 0.024655, Final residual = 0.000205671, No Iterations 5
time step continuity errors : sum local = 6.52668e-05, global = 6.66684e-17, cumulative = 1.01446e-15
smoothSolver:  Solving for nuTilda, Initial residual = 0.00765542, Final residual = 3.65073e-05, No Iterations 8
ExecutionTime = 2.34 s  ClockTime = 2 s

Time = 25

smoothSolver:  Solving for Ux, Initial residual = 0.00672504, Final residual = 2.54138e-05, No Iterations 8
smoothSolver:  Solving for Uy, Initial residual = 0.0082866, Final residual = 3.80632e-05, No Iterations 8
GAMG:  Solving for p, Initial residual = 0.0238213, Final residual = 0.000190293, No Iterations 5
time step continuity errors : sum local = 5.99318e-05, global = 2.056e-16, cumulative = 1.22006e-15
smoothSolver:  Solving for nuTilda, Initial residual = 0.0072488, Final residual = 3.47324e-05, No Iterations 8
ExecutionTime = 2.41 s  ClockTime = 2 s

forces wings output:
    sum of forces:
        pressure : (1.46537 13.942 -5.06377e-20)
        viscous  : (0.469584 -0.050408 -2.50796e-22)
        porous   : (0 0 0)
    sum of moments:
        pressure : (-0.697101 0.0732683 1.18697)
        viscous  : (0.0025204 0.0234792 -0.000354699)
        porous   : (0 0 0)

Time = 26

smoothSolver:  Solving for Ux, Initial residual = 0.00626631, Final residual = 2.46789e-05, No Iterations 8
smoothSolver:  Solving for Uy, Initial residual = 0.0038321, Final residual = 1.70681e-05, No Iterations 8
GAMG:  Solving for p, Initial residual = 0.021843, Final residual = 0.000116123, No Iterations 5
time step continuity errors : sum local = 3.66038e-05, global = -4.13477e-17, cumulative = 1.17871e-15
smoothSolver:  Solving for nuTilda, Initial residual = 0.00688029, Final residual = 3.30702e-05, No Iterations 8
ExecutionTime = 2.51 s  ClockTime = 2 s

Time = 27

smoothSolver:  Solving for Ux, Initial residual = 0.0059738, Final residual = 2.41276e-05, No Iterations 8
smoothSolver:  Solving for Uy, Initial residual = 0.00578371, Final residual = 2.67876e-05, No Iterations 8
GAMG:  Solving for p, Initial residual = 0.01738, Final residual = 9.80348e-05, No Iterations 5
time step continuity errors : sum local = 3.08628e-05, global = 4.30754e-17, cumulative = 1.22179e-15
smoothSolver:  Solving for nuTilda, Initial residual = 0.00654967, Final residual = 3.15501e-05, No Iterations 8
bounding nuTilda, min: -4.61074e-05 max: 0.401776 average: 0.0842581
ExecutionTime = 2.59 s  ClockTime = 2 s

Time = 28

smoothSolver:  Solving for Ux, Initial residual = 0.00511877, Final residual = 2.03509e-05, No Iterations 8
smoothSolver:  Solving for Uy, Initial residual = 0.00527802, Final residual = 2.45111e-05, No Iterations 8
GAMG:  Solving for p, Initial residual = 0.015928, Final residual = 0.000135808, No Iterations 5
time step continuity errors : sum local = 4.22788e-05, global = 1.92806e-16, cumulative = 1.41459e-15
smoothSolver:  Solving for nuTilda, Initial residual = 0.00624558, Final residual = 3.01256e-05, No Iterations 8
bounding nuTilda, min: -8.65444e-05 max: 0.401697 average: 0.0833059
ExecutionTime = 2.68 s  ClockTime = 2 s

Time = 29

smoothSolver:  Solving for Ux, Initial residual = 0.00458235, Final residual = 1.7597e-05, No Iterations 8
smoothSolver:  Solving for Uy, Initial residual = 0.00368373, Final residual = 1.69798e-05, No Iterations 8
GAMG:  Solving for p, Initial residual = 0.015249, Final residual = 0.000147138, No Iterations 4
time step continuity errors : sum local = 4.63039e-05, global = 3.79425e-16, cumulative = 1.79402e-15
smoothSolver:  Solving for nuTilda, Initial residual = 0.00597333, Final residual = 2.88305e-05, No Iterations 8
ExecutionTime = 2.76 s  ClockTime = 2 s

Time = 30

smoothSolver:  Solving for Ux, Initial residual = 0.00459031, Final residual = 1.73874e-05, No Iterations 8
smoothSolver:  Solving for Uy, Initial residual = 0.00433485, Final residual = 2.0391e-05, No Iterations 8
GAMG:  Solving for p, Initial residual = 0.0128624, Final residual = 9.45305e-05, No Iterations 5
time step continuity errors : sum local = 2.98122e-05, global = 1.12801e-16, cumulative = 1.90682e-15
smoothSolver:  Solving for nuTilda, Initial residual = 0.00571385, Final residual = 2.75839e-05, No Iterations 8
bounding nuTilda, min: -0.000113096 max: 0.401517 average: 0.0814769
ExecutionTime = 2.84 s  ClockTime = 2 s

forces wings output:
    sum of forces:
        pressure : (1.65196 15.7173 -3.56641e-20)
        viscous  : (0.455771 -0.0477398 -6.46397e-22)
        porous   : (0 0 0)
    sum of moments:
        pressure : (-0.785867 0.0825979 1.69783)
        viscous  : (0.00238699 0.0227885 -5.56536e-05)
        porous   : (0 0 0)

Time = 31

smoothSolver:  Solving for Ux, Initial residual = 0.00467163, Final residual = 1.82226e-05, No Iterations 8
smoothSolver:  Solving for Uy, Initial residual = 0.00318388, Final residual = 1.48638e-05, No Iterations 8
GAMG:  Solving for p, Initial residual = 0.0108705, Final residual = 0.00010316, No Iterations 5
time step continuity errors : sum local = 3.2382e-05, global = -1.31793e-16, cumulative = 1.77502e-15
smoothSolver:  Solving for nuTilda, Initial residual = 0.00547512, Final residual = 2.64474e-05, No Iterations 8
bounding nuTilda, min: -7.01285e-05 max: 0.401421 average: 0.0805988
ExecutionTime = 2.93 s  ClockTime = 2 s

Time = 32

smoothSolver:  Solving for Ux, Initial residual = 0.00458015, Final residual = 1.87348e-05, No Iterations 8
smoothSolver:  Solving for Uy, Initial residual = 0.00262986, Final residual = 1.20912e-05, No Iterations 8
GAMG:  Solving for p, Initial residual = 0.0104553, Final residual = 9.03972e-05, No Iterations 4
time step continuity errors : sum local = 2.83565e-05, global = 7.9683e-17, cumulative = 1.85471e-15
smoothSolver:  Solving for nuTilda, Initial residual = 0.00524349, Final residual = 2.53368e-05, No Iterations 8
ExecutionTime = 3.02 s  ClockTime = 3 s

Time = 33

smoothSolver:  Solving for Ux, Initial residual = 0.00426806, Final residual = 1.79355e-05, No Iterations 8
smoothSolver:  Solving for Uy, Initial residual = 0.00292944, Final residual = 1.39347e-05, No Iterations 8
GAMG:  Solving for p, Initial residual = 0.009649, Final residual = 5.23316e-05, No Iterations 5
time step continuity errors : sum local = 1.64761e-05, global = 2.2513e-16, cumulative = 2.07984e-15
smoothSolver:  Solving for nuTilda, Initial residual = 0.00503318, Final residual = 2.43485e-05, No Iterations 8
bounding nuTilda, min: -0.000238576 max: 0.401249 average: 0.0789061
ExecutionTime = 3.11 s  ClockTime = 3 s

Time = 34

smoothSolver:  Solving for Ux, Initial residual = 0.00387957, Final residual = 1.63292e-05, No Iterations 8
smoothSolver:  Solving for Uy, Initial residual = 0.00237138, Final residual = 1.19221e-05, No Iterations 8
GAMG:  Solving for p, Initial residual = 0.00784889, Final residual = 4.86151e-05, No Iterations 5
time step continuity errors : sum local = 1.51251e-05, global = -8.47419e-19, cumulative = 2.07899e-15
smoothSolver:  Solving for nuTilda, Initial residual = 0.00482568, Final residual = 2.33661e-05, No Iterations 8
bounding nuTilda, min: -0.00015889 max: 0.401184 average: 0.0780886
ExecutionTime = 3.2 s  ClockTime = 3 s

Time = 35

smoothSolver:  Solving for Ux, Initial residual = 0.00370499, Final residual = 1.5392e-05, No Iterations 8
smoothSolver:  Solving for Uy, Initial residual = 0.00242119, Final residual = 1.2109e-05, No Iterations 8
GAMG:  Solving for p, Initial residual = 0.00682111, Final residual = 6.36352e-05, No Iterations 4
time step continuity errors : sum local = 1.99266e-05, global = -3.86215e-17, cumulative = 2.04037e-15
smoothSolver:  Solving for nuTilda, Initial residual = 0.00463889, Final residual = 2.24999e-05, No Iterations 8
bounding nuTilda, min: -4.39241e-05 max: 0.401136 average: 0.0772938
ExecutionTime = 3.29 s  ClockTime = 3 s

forces wings output:
    sum of forces:
        pressure : (1.27422 12.1234 -3.70201e-20)
        viscous  : (0.441872 -0.0460737 -5.76519e-22)
        porous   : (0 0 0)
    sum of moments:
        pressure : (-0.606169 0.0637109 0.813091)
        viscous  : (0.00230368 0.0220936 -1.63782e-05)
        porous   : (0 0 0)

Time = 36

smoothSolver:  Solving for Ux, Initial residual = 0.0037054, Final residual = 1.52238e-05, No Iterations 8
smoothSolver:  Solving for Uy, Initial residual = 0.00227193, Final residual = 1.14798e-05, No Iterations 8
GAMG:  Solving for p, Initial residual = 0.00676209, Final residual = 4.42146e-05, No Iterations 5
time step continuity errors : sum local = 1.39306e-05, global = 6.70193e-17, cumulative = 2.10739e-15
smoothSolver:  Solving for nuTilda, Initial residual = 0.00445658, Final residual = 2.16211e-05, No Iterations 8
ExecutionTime = 3.38 s  ClockTime = 3 s

Time = 37

smoothSolver:  Solving for Ux, Initial residual = 0.00374817, Final residual = 1.54724e-05, No Iterations 8
smoothSolver:  Solving for Uy, Initial residual = 0.00174248, Final residual = 9.20202e-06, No Iterations 8
GAMG:  Solving for p, Initial residual = 0.00596538, Final residual = 3.71496e-05, No Iterations 5
time step continuity errors : sum local = 1.16648e-05, global = -2.37007e-16, cumulative = 1.87038e-15
smoothSolver:  Solving for nuTilda, Initial residual = 0.00429395, Final residual = 2.08489e-05, No Iterations 8
bounding nuTilda, min: -0.000213187 max: 0.401075 average: 0.0757553
ExecutionTime = 3.47 s  ClockTime = 3 s

Time = 38

smoothSolver:  Solving for Ux, Initial residual = 0.00369145, Final residual = 1.54962e-05, No Iterations 8
smoothSolver:  Solving for Uy, Initial residual = 0.00178068, Final residual = 9.45236e-06, No Iterations 8
GAMG:  Solving for p, Initial residual = 0.00496213, Final residual = 3.82048e-05, No Iterations 4
time step continuity errors : sum local = 1.19721e-05, global = -2.51874e-17, cumulative = 1.84519e-15
smoothSolver:  Solving for nuTilda, Initial residual = 0.00413459, Final residual = 2.0062e-05, No Iterations 8
ExecutionTime = 3.56 s  ClockTime = 3 s

Time = 39

smoothSolver:  Solving for Ux, Initial residual = 0.00352763, Final residual = 1.50465e-05, No Iterations 8
smoothSolver:  Solving for Uy, Initial residual = 0.00175735, Final residual = 9.3909e-06, No Iterations 8
GAMG:  Solving for p, Initial residual = 0.00465777, Final residual = 2.38014e-05, No Iterations 5
time step continuity errors : sum local = 7.39131e-06, global = 1.62815e-16, cumulative = 2.00801e-15
smoothSolver:  Solving for nuTilda, Initial residual = 0.00399153, Final residual = 1.93703e-05, No Iterations 8
bounding nuTilda, min: -0.000105784 max: 0.401028 average: 0.0742852
ExecutionTime = 3.66 s  ClockTime = 3 s

Time = 40

smoothSolver:  Solving for Ux, Initial residual = 0.00334174, Final residual = 1.43904e-05, No Iterations 8
smoothSolver:  Solving for Uy, Initial residual = 0.00167224, Final residual = 9.19583e-06, No Iterations 8
GAMG:  Solving for p, Initial residual = 0.0043391, Final residual = 4.05095e-05, No Iterations 4
time step continuity errors : sum local = 1.25858e-05, global = -5.13175e-17, cumulative = 1.95669e-15
smoothSolver:  Solving for nuTilda, Initial residual = 0.00384933, Final residual = 1.86654e-05, No Iterations 8
ExecutionTime = 3.75 s  ClockTime = 3 s

forces wings output:
    sum of forces:
        pressure : (1.09201 10.3898 -3.9161e-20)
        viscous  : (0.429407 -0.0448134 -6.09897e-22)
        porous   : (0 0 0)
    sum of moments:
        pressure : (-0.519491 0.0546007 0.334373)
        viscous  : (0.00224067 0.0214703 -3.77206e-05)
        porous   : (0 0 0)

Time = 41

smoothSolver:  Solving for Ux, Initial residual = 0.00323659, Final residual = 1.39787e-05, No Iterations 8
smoothSolver:  Solving for Uy, Initial residual = 0.00172882, Final residual = 9.55883e-06, No Iterations 8
GAMG:  Solving for p, Initial residual = 0.00379481, Final residual = 3.43708e-05, No Iterations 4
time step continuity errors : sum local = 1.07623e-05, global = 1.54294e-16, cumulative = 2.11099e-15
smoothSolver:  Solving for nuTilda, Initial residual = 0.00372025, Final residual = 1.8039e-05, No Iterations 8
bounding nuTilda, min: -0.000126551 max: 0.400976 average: 0.0728783
ExecutionTime = 3.86 s  ClockTime = 3 s

Time = 42

smoothSolver:  Solving for Ux, Initial residual = 0.00319153, Final residual = 1.38062e-05, No Iterations 8
smoothSolver:  Solving for Uy, Initial residual = 0.00154595, Final residual = 8.78953e-06, No Iterations 8
GAMG:  Solving for p, Initial residual = 0.00341167, Final residual = 3.17626e-05, No Iterations 4
time step continuity errors : sum local = 9.98324e-06, global = -2.31224e-16, cumulative = 1.87976e-15
smoothSolver:  Solving for nuTilda, Initial residual = 0.00359221, Final residual = 1.74065e-05, No Iterations 8
ExecutionTime = 3.95 s  ClockTime = 3 s

Time = 43

smoothSolver:  Solving for Ux, Initial residual = 0.00316494, Final residual = 1.37132e-05, No Iterations 8
smoothSolver:  Solving for Uy, Initial residual = 0.00143214, Final residual = 8.26477e-06, No Iterations 8
GAMG:  Solving for p, Initial residual = 0.00312272, Final residual = 2.51529e-05, No Iterations 4
time step continuity errors : sum local = 7.84843e-06, global = -2.46859e-16, cumulative = 1.6329e-15
smoothSolver:  Solving for nuTilda, Initial residual = 0.0034743, Final residual = 1.68321e-05, No Iterations 8
bounding nuTilda, min: -0.000143926 max: 0.400929 average: 0.0715301
ExecutionTime = 4.04 s  ClockTime = 4 s

Time = 44

smoothSolver:  Solving for Ux, Initial residual = 0.00311402, Final residual = 1.35369e-05, No Iterations 8
smoothSolver:  Solving for Uy, Initial residual = 0.00141593, Final residual = 8.22357e-06, No Iterations 8
GAMG:  Solving for p, Initial residual = 0.00283972, Final residual = 2.38197e-05, No Iterations 4
time step continuity errors : sum local = 7.49734e-06, global = -4.59807e-17, cumulative = 1.58692e-15
smoothSolver:  Solving for nuTilda, Initial residual = 0.00335914, Final residual = 1.62611e-05, No Iterations 8
ExecutionTime = 4.13 s  ClockTime = 4 s

Time = 45

smoothSolver:  Solving for Ux, Initial residual = 0.00303036, Final residual = 1.32533e-05, No Iterations 8
smoothSolver:  Solving for Uy, Initial residual = 0.00137152, Final residual = 8.04881e-06, No Iterations 8
GAMG:  Solving for p, Initial residual = 0.0026938, Final residual = 2.32123e-05, No Iterations 4
time step continuity errors : sum local = 7.27189e-06, global = -1.55477e-16, cumulative = 1.43145e-15
smoothSolver:  Solving for nuTilda, Initial residual = 0.00325195, Final residual = 1.57356e-05, No Iterations 8
bounding nuTilda, min: -0.000157499 max: 0.400901 average: 0.0702369
ExecutionTime = 4.22 s  ClockTime = 4 s

forces wings output:
    sum of forces:
        pressure : (1.09728 10.4399 -4.078e-20)
        viscous  : (0.416285 -0.043472 -5.90468e-22)
        porous   : (0 0 0)
    sum of moments:
        pressure : (-0.521997 0.0548641 0.270633)
        viscous  : (0.0021736 0.0208142 -5.77272e-05)
        porous   : (0 0 0)

Time = 46

smoothSolver:  Solving for Ux, Initial residual = 0.00294296, Final residual = 1.29447e-05, No Iterations 8
smoothSolver:  Solving for Uy, Initial residual = 0.0014098, Final residual = 8.281e-06, No Iterations 8
GAMG:  Solving for p, Initial residual = 0.00254731, Final residual = 2.08121e-05, No Iterations 4
time step continuity errors : sum local = 6.49924e-06, global = -1.15615e-16, cumulative = 1.31583e-15
smoothSolver:  Solving for nuTilda, Initial residual = 0.00314764, Final residual = 1.52237e-05, No Iterations 8
ExecutionTime = 4.32 s  ClockTime = 4 s

Time = 47

smoothSolver:  Solving for Ux, Initial residual = 0.002876, Final residual = 1.26743e-05, No Iterations 8
smoothSolver:  Solving for Uy, Initial residual = 0.00140206, Final residual = 8.31405e-06, No Iterations 8
GAMG:  Solving for p, Initial residual = 0.00237488, Final residual = 2.24589e-05, No Iterations 4
time step continuity errors : sum local = 7.01838e-06, global = 5.08736e-17, cumulative = 1.3667e-15
smoothSolver:  Solving for nuTilda, Initial residual = 0.00304954, Final residual = 1.47455e-05, No Iterations 8
bounding nuTilda, min: -0.000167905 max: 0.400883 average: 0.0689948
ExecutionTime = 4.41 s  ClockTime = 4 s

Time = 48

smoothSolver:  Solving for Ux, Initial residual = 0.00283123, Final residual = 1.24725e-05, No Iterations 8
smoothSolver:  Solving for Uy, Initial residual = 0.00135306, Final residual = 8.10233e-06, No Iterations 8
GAMG:  Solving for p, Initial residual = 0.00216104, Final residual = 1.99366e-05, No Iterations 4
time step continuity errors : sum local = 6.18364e-06, global = -5.80672e-17, cumulative = 1.30864e-15
smoothSolver:  Solving for nuTilda, Initial residual = 0.00295614, Final residual = 1.42805e-05, No Iterations 8
ExecutionTime = 4.49 s  ClockTime = 4 s

Time = 49

smoothSolver:  Solving for Ux, Initial residual = 0.00279837, Final residual = 1.23298e-05, No Iterations 8
smoothSolver:  Solving for Uy, Initial residual = 0.00131893, Final residual = 7.91632e-06, No Iterations 8
GAMG:  Solving for p, Initial residual = 0.00207103, Final residual = 1.42026e-05, No Iterations 4
time step continuity errors : sum local = 4.41157e-06, global = -4.42527e-17, cumulative = 1.26438e-15
smoothSolver:  Solving for nuTilda, Initial residual = 0.00286749, Final residual = 1.38428e-05, No Iterations 8
bounding nuTilda, min: -0.000175804 max: 0.400863 average: 0.0678007
ExecutionTime = 4.58 s  ClockTime = 4 s

Time = 50

smoothSolver:  Solving for Ux, Initial residual = 0.00275826, Final residual = 1.21619e-05, No Iterations 8
smoothSolver:  Solving for Uy, Initial residual = 0.00128951, Final residual = 7.81653e-06, No Iterations 8
GAMG:  Solving for p, Initial residual = 0.00198741, Final residual = 1.30419e-05, No Iterations 4
time step continuity errors : sum local = 4.08374e-06, global = -1.34042e-16, cumulative = 1.13034e-15
smoothSolver:  Solving for nuTilda, Initial residual = 0.00278268, Final residual = 1.34228e-05, No Iterations 8
ExecutionTime = 4.67 s  ClockTime = 4 s

forces wings output:
    sum of forces:
        pressure : (1.12657 10.7186 -4.24895e-20)
        viscous  : (0.404245 -0.0422131 -6.19432e-22)
        porous   : (0 0 0)
    sum of moments:
        pressure : (-0.535931 0.0563286 0.280382)
        viscous  : (0.00211066 0.0202123 -6.94969e-05)
        porous   : (0 0 0)

Time = 51

smoothSolver:  Solving for Ux, Initial residual = 0.00270753, Final residual = 1.19483e-05, No Iterations 8
smoothSolver:  Solving for Uy, Initial residual = 0.00127828, Final residual = 7.79992e-06, No Iterations 8
GAMG:  Solving for p, Initial residual = 0.00186586, Final residual = 1.06948e-05, No Iterations 4
time step continuity errors : sum local = 3.35534e-06, global = -9.25901e-17, cumulative = 1.03775e-15
smoothSolver:  Solving for nuTilda, Initial residual = 0.00270262, Final residual = 1.30236e-05, No Iterations 8
bounding nuTilda, min: -0.000181461 max: 0.400845 average: 0.0666513
ExecutionTime = 4.77 s  ClockTime = 4 s

Time = 52

smoothSolver:  Solving for Ux, Initial residual = 0.00265858, Final residual = 1.17441e-05, No Iterations 8
smoothSolver:  Solving for Uy, Initial residual = 0.00128989, Final residual = 7.84871e-06, No Iterations 8
GAMG:  Solving for p, Initial residual = 0.00179199, Final residual = 1.1316e-05, No Iterations 4
time step continuity errors : sum local = 3.53897e-06, global = -1.26055e-16, cumulative = 9.11698e-16
smoothSolver:  Solving for nuTilda, Initial residual = 0.00262553, Final residual = 1.26409e-05, No Iterations 8
ExecutionTime = 4.86 s  ClockTime = 4 s

Time = 53

smoothSolver:  Solving for Ux, Initial residual = 0.00261405, Final residual = 1.15606e-05, No Iterations 8
smoothSolver:  Solving for Uy, Initial residual = 0.00128276, Final residual = 7.82083e-06, No Iterations 8
GAMG:  Solving for p, Initial residual = 0.00175437, Final residual = 1.38545e-05, No Iterations 4
time step continuity errors : sum local = 4.29962e-06, global = -2.96576e-18, cumulative = 9.08732e-16
smoothSolver:  Solving for nuTilda, Initial residual = 0.00255189, Final residual = 1.22749e-05, No Iterations 8
bounding nuTilda, min: -0.000184969 max: 0.400831 average: 0.065544
ExecutionTime = 4.95 s  ClockTime = 5 s

Time = 54

smoothSolver:  Solving for Ux, Initial residual = 0.00257482, Final residual = 1.13999e-05, No Iterations 8
smoothSolver:  Solving for Uy, Initial residual = 0.0012641, Final residual = 7.73776e-06, No Iterations 8
GAMG:  Solving for p, Initial residual = 0.00168671, Final residual = 1.28149e-05, No Iterations 4
time step continuity errors : sum local = 4.00197e-06, global = -3.48173e-17, cumulative = 8.73915e-16
smoothSolver:  Solving for nuTilda, Initial residual = 0.00248148, Final residual = 1.19227e-05, No Iterations 8
bounding nuTilda, min: -0.000192216 max: 0.400825 average: 0.0650053
ExecutionTime = 5.03 s  ClockTime = 5 s

Time = 55

smoothSolver:  Solving for Ux, Initial residual = 0.00254094, Final residual = 1.12588e-05, No Iterations 8
smoothSolver:  Solving for Uy, Initial residual = 0.00124646, Final residual = 7.64317e-06, No Iterations 8
GAMG:  Solving for p, Initial residual = 0.00162412, Final residual = 1.2499e-05, No Iterations 4
time step continuity errors : sum local = 3.90419e-06, global = -1.51201e-16, cumulative = 7.22713e-16
smoothSolver:  Solving for nuTilda, Initial residual = 0.00241365, Final residual = 1.15853e-05, No Iterations 8
bounding nuTilda, min: -0.000186945 max: 0.400818 average: 0.0644762
ExecutionTime = 5.12 s  ClockTime = 5 s

forces wings output:
    sum of forces:
        pressure : (1.15227 10.9631 -4.28538e-20)
        viscous  : (0.39229 -0.0409405 -6.56746e-22)
        porous   : (0 0 0)
    sum of moments:
        pressure : (-0.548157 0.0576136 0.290865)
        viscous  : (0.00204703 0.0196145 -7.69308e-05)
        porous   : (0 0 0)

Time = 56

smoothSolver:  Solving for Ux, Initial residual = 0.00250774, Final residual = 1.11194e-05, No Iterations 8
smoothSolver:  Solving for Uy, Initial residual = 0.00123509, Final residual = 7.5837e-06, No Iterations 8
GAMG:  Solving for p, Initial residual = 0.0015651, Final residual = 1.19382e-05, No Iterations 4
time step continuity errors : sum local = 3.72341e-06, global = -3.31306e-18, cumulative = 7.194e-16
smoothSolver:  Solving for nuTilda, Initial residual = 0.00234859, Final residual = 1.12619e-05, No Iterations 8
ExecutionTime = 5.21 s  ClockTime = 5 s

Time = 57

smoothSolver:  Solving for Ux, Initial residual = 0.00247174, Final residual = 1.09679e-05, No Iterations 8
smoothSolver:  Solving for Uy, Initial residual = 0.0012301, Final residual = 7.56878e-06, No Iterations 8
GAMG:  Solving for p, Initial residual = 0.00150909, Final residual = 1.11487e-05, No Iterations 4
time step continuity errors : sum local = 3.46213e-06, global = 1.57186e-16, cumulative = 8.76586e-16
smoothSolver:  Solving for nuTilda, Initial residual = 0.00228578, Final residual = 1.09497e-05, No Iterations 8
bounding nuTilda, min: -0.000187345 max: 0.400805 average: 0.0634457
ExecutionTime = 5.3 s  ClockTime = 5 s

Time = 58

smoothSolver:  Solving for Ux, Initial residual = 0.00243573, Final residual = 1.08168e-05, No Iterations 8
smoothSolver:  Solving for Uy, Initial residual = 0.00122188, Final residual = 7.54496e-06, No Iterations 8
GAMG:  Solving for p, Initial residual = 0.00145534, Final residual = 1.16337e-05, No Iterations 4
time step continuity errors : sum local = 3.60563e-06, global = -3.95748e-17, cumulative = 8.37012e-16
smoothSolver:  Solving for nuTilda, Initial residual = 0.00222548, Final residual = 1.06494e-05, No Iterations 8
ExecutionTime = 5.39 s  ClockTime = 5 s

Time = 59

smoothSolver:  Solving for Ux, Initial residual = 0.00240076, Final residual = 1.06691e-05, No Iterations 8
smoothSolver:  Solving for Uy, Initial residual = 0.00121269, Final residual = 7.50016e-06, No Iterations 8
GAMG:  Solving for p, Initial residual = 0.00141416, Final residual = 1.10704e-05, No Iterations 4
time step continuity errors : sum local = 3.45274e-06, global = -6.31613e-18, cumulative = 8.30695e-16
smoothSolver:  Solving for nuTilda, Initial residual = 0.00216737, Final residual = 1.03602e-05, No Iterations 8
bounding nuTilda, min: -0.000186528 max: 0.400797 average: 0.0624506
ExecutionTime = 5.48 s  ClockTime = 5 s

Time = 60

smoothSolver:  Solving for Ux, Initial residual = 0.00236707, Final residual = 1.05234e-05, No Iterations 8
smoothSolver:  Solving for Uy, Initial residual = 0.00120228, Final residual = 7.44254e-06, No Iterations 8
GAMG:  Solving for p, Initial residual = 0.00137382, Final residual = 1.14656e-05, No Iterations 4
time step continuity errors : sum local = 3.57752e-06, global = -1.87409e-16, cumulative = 6.43287e-16
smoothSolver:  Solving for nuTilda, Initial residual = 0.00211137, Final residual = 1.00813e-05, No Iterations 8
bounding nuTilda, min: -0.000102496 max: 0.400795 average: 0.0619657
ExecutionTime = 5.57 s  ClockTime = 5 s

forces wings output:
    sum of forces:
        pressure : (1.17899 11.2173 -4.21485e-20)
        viscous  : (0.38074 -0.0397115 -7.36147e-22)
        porous   : (0 0 0)
    sum of moments:
        pressure : (-0.560867 0.0589495 0.30313)
        viscous  : (0.00198557 0.019037 -8.1469e-05)
        porous   : (0 0 0)

Time = 61

smoothSolver:  Solving for Ux, Initial residual = 0.00233706, Final residual = 1.03926e-05, No Iterations 8
smoothSolver:  Solving for Uy, Initial residual = 0.00119103, Final residual = 7.38033e-06, No Iterations 8
GAMG:  Solving for p, Initial residual = 0.00134352, Final residual = 1.21541e-05, No Iterations 4
time step continuity errors : sum local = 3.77673e-06, global = -3.8699e-17, cumulative = 6.04588e-16
smoothSolver:  Solving for nuTilda, Initial residual = 0.00205738, Final residual = 9.81155e-06, No Iterations 8
bounding nuTilda, min: -0.000184671 max: 0.400793 average: 0.061489
ExecutionTime = 5.66 s  ClockTime = 5 s

Time = 62

smoothSolver:  Solving for Ux, Initial residual = 0.00230982, Final residual = 1.02692e-05, No Iterations 8
smoothSolver:  Solving for Uy, Initial residual = 0.00118285, Final residual = 7.32505e-06, No Iterations 8
GAMG:  Solving for p, Initial residual = 0.00131435, Final residual = 1.19608e-05, No Iterations 4
time step continuity errors : sum local = 3.71183e-06, global = 1.78767e-16, cumulative = 7.83354e-16
smoothSolver:  Solving for nuTilda, Initial residual = 0.00200576, Final residual = 9.55159e-06, No Iterations 8
ExecutionTime = 5.75 s  ClockTime = 5 s

Time = 63

smoothSolver:  Solving for Ux, Initial residual = 0.00228207, Final residual = 1.01393e-05, No Iterations 8
smoothSolver:  Solving for Uy, Initial residual = 0.0011779, Final residual = 7.27974e-06, No Iterations 8
GAMG:  Solving for p, Initial residual = 0.00127755, Final residual = 1.0672e-05, No Iterations 4
time step continuity errors : sum local = 3.33312e-06, global = 1.60798e-16, cumulative = 9.44152e-16
smoothSolver:  Solving for nuTilda, Initial residual = 0.0019559, Final residual = 9.30064e-06, No Iterations 8
bounding nuTilda, min: -0.000181897 max: 0.400789 average: 0.0605593
ExecutionTime = 5.83 s  ClockTime = 5 s

Time = 64

smoothSolver:  Solving for Ux, Initial residual = 0.00225285, Final residual = 1.00019e-05, No Iterations 8
smoothSolver:  Solving for Uy, Initial residual = 0.00117076, Final residual = 7.22919e-06, No Iterations 8
GAMG:  Solving for p, Initial residual = 0.0012357, Final residual = 1.2065e-05, No Iterations 4
time step continuity errors : sum local = 3.76837e-06, global = 4.32314e-17, cumulative = 9.87384e-16
smoothSolver:  Solving for nuTilda, Initial residual = 0.0019077, Final residual = 9.05829e-06, No Iterations 8
ExecutionTime = 5.91 s  ClockTime = 5 s

Time = 65

smoothSolver:  Solving for Ux, Initial residual = 0.00222465, Final residual = 9.87083e-06, No Iterations 8
smoothSolver:  Solving for Uy, Initial residual = 0.00116085, Final residual = 7.17313e-06, No Iterations 8
GAMG:  Solving for p, Initial residual = 0.0012069, Final residual = 8.27725e-06, No Iterations 5
time step continuity errors : sum local = 2.58824e-06, global = 1.0468e-16, cumulative = 1.09206e-15
smoothSolver:  Solving for nuTilda, Initial residual = 0.00186104, Final residual = 8.82396e-06, No Iterations 8
bounding nuTilda, min: -0.000178252 max: 0.400785 average: 0.0596598
ExecutionTime = 6 s  ClockTime = 6 s

forces wings output:
    sum of forces:
        pressure : (1.21162 11.5278 -4.18299e-20)
        viscous  : (0.369502 -0.038517 -8.01316e-22)
        porous   : (0 0 0)
    sum of moments:
        pressure : (-0.576389 0.0605809 0.324676)
        viscous  : (0.00192585 0.0184751 -8.46803e-05)
        porous   : (0 0 0)

Time = 66

smoothSolver:  Solving for Ux, Initial residual = 0.00219902, Final residual = 9.7533e-06, No Iterations 8
smoothSolver:  Solving for Uy, Initial residual = 0.00115029, Final residual = 7.11604e-06, No Iterations 8
GAMG:  Solving for p, Initial residual = 0.00116663, Final residual = 7.59914e-06, No Iterations 5
time step continuity errors : sum local = 2.3803e-06, global = -7.12447e-18, cumulative = 1.08494e-15
smoothSolver:  Solving for nuTilda, Initial residual = 0.00181595, Final residual = 8.59724e-06, No Iterations 8
bounding nuTilda, min: -1.98981e-06 max: 0.400783 average: 0.059221
ExecutionTime = 6.09 s  ClockTime = 6 s

Time = 67

smoothSolver:  Solving for Ux, Initial residual = 0.0021751, Final residual = 9.64358e-06, No Iterations 8
smoothSolver:  Solving for Uy, Initial residual = 0.0011403, Final residual = 7.05695e-06, No Iterations 8
GAMG:  Solving for p, Initial residual = 0.00113607, Final residual = 4.64156e-06, No Iterations 5
time step continuity errors : sum local = 1.45064e-06, global = -3.45544e-17, cumulative = 1.05038e-15
smoothSolver:  Solving for nuTilda, Initial residual = 0.00177211, Final residual = 8.37822e-06, No Iterations 8
bounding nuTilda, min: -0.000173752 max: 0.400782 average: 0.0587892
ExecutionTime = 6.17 s  ClockTime = 6 s

Time = 68

smoothSolver:  Solving for Ux, Initial residual = 0.0021522, Final residual = 9.53754e-06, No Iterations 8
smoothSolver:  Solving for Uy, Initial residual = 0.0011308, Final residual = 6.99626e-06, No Iterations 8
GAMG:  Solving for p, Initial residual = 0.00111034, Final residual = 6.90686e-06, No Iterations 5
time step continuity errors : sum local = 2.15571e-06, global = -1.27235e-16, cumulative = 9.23149e-16
smoothSolver:  Solving for nuTilda, Initial residual = 0.00172945, Final residual = 8.16665e-06, No Iterations 8
ExecutionTime = 6.26 s  ClockTime = 6 s

Time = 69

smoothSolver:  Solving for Ux, Initial residual = 0.00212716, Final residual = 9.41583e-06, No Iterations 8
smoothSolver:  Solving for Uy, Initial residual = 0.00112318, Final residual = 6.93902e-06, No Iterations 8
GAMG:  Solving for p, Initial residual = 0.00107901, Final residual = 7.02348e-06, No Iterations 5
time step continuity errors : sum local = 2.19333e-06, global = -5.19158e-17, cumulative = 8.71233e-16
smoothSolver:  Solving for nuTilda, Initial residual = 0.00168834, Final residual = 7.96213e-06, No Iterations 8
bounding nuTilda, min: -0.000168721 max: 0.40078 average: 0.0579459
ExecutionTime = 6.34 s  ClockTime = 6 s

Time = 70

smoothSolver:  Solving for Ux, Initial residual = 0.00210332, Final residual = 9.29793e-06, No Iterations 8
smoothSolver:  Solving for Uy, Initial residual = 0.00111504, Final residual = 6.8791e-06, No Iterations 8
GAMG:  Solving for p, Initial residual = 0.00104882, Final residual = 7.21947e-06, No Iterations 5
time step continuity errors : sum local = 2.25925e-06, global = 1.87519e-16, cumulative = 1.05875e-15
smoothSolver:  Solving for nuTilda, Initial residual = 0.00164844, Final residual = 7.76551e-06, No Iterations 8
ExecutionTime = 6.42 s  ClockTime = 6 s

forces wings output:
    sum of forces:
        pressure : (1.24551 11.8502 -4.1732e-20)
        viscous  : (0.358533 -0.0373514 -8.70444e-22)
        porous   : (0 0 0)
    sum of moments:
        pressure : (-0.59251 0.0622753 0.345592)
        viscous  : (0.00186757 0.0179266 -8.7695e-05)
        porous   : (0 0 0)

Time = 71

smoothSolver:  Solving for Ux, Initial residual = 0.00208141, Final residual = 9.18912e-06, No Iterations 8
smoothSolver:  Solving for Uy, Initial residual = 0.00110617, Final residual = 6.81648e-06, No Iterations 8
GAMG:  Solving for p, Initial residual = 0.00102529, Final residual = 6.89955e-06, No Iterations 5
time step continuity errors : sum local = 2.16197e-06, global = 5.53131e-17, cumulative = 1.11407e-15
smoothSolver:  Solving for nuTilda, Initial residual = 0.00160967, Final residual = 7.57574e-06, No Iterations 8
bounding nuTilda, min: -0.000163018 max: 0.400779 average: 0.0571287
ExecutionTime = 6.52 s  ClockTime = 6 s

Time = 72

smoothSolver:  Solving for Ux, Initial residual = 0.00206102, Final residual = 9.08738e-06, No Iterations 8
smoothSolver:  Solving for Uy, Initial residual = 0.00109663, Final residual = 6.75194e-06, No Iterations 8
GAMG:  Solving for p, Initial residual = 0.00100144, Final residual = 4.49238e-06, No Iterations 5
time step continuity errors : sum local = 1.40535e-06, global = -1.2976e-16, cumulative = 9.84305e-16
smoothSolver:  Solving for nuTilda, Initial residual = 0.00157202, Final residual = 7.39163e-06, No Iterations 8
ExecutionTime = 6.6 s  ClockTime = 6 s

Time = 73

smoothSolver:  Solving for Ux, Initial residual = 0.00204156, Final residual = 8.99063e-06, No Iterations 8
smoothSolver:  Solving for Uy, Initial residual = 0.00108687, Final residual = 6.68621e-06, No Iterations 8
GAMG:  Solving for p, Initial residual = 0.000981468, Final residual = 7.21521e-06, No Iterations 5
time step continuity errors : sum local = 2.25594e-06, global = 2.7095e-16, cumulative = 1.25525e-15
smoothSolver:  Solving for nuTilda, Initial residual = 0.00153585, Final residual = 7.21282e-06, No Iterations 8
bounding nuTilda, min: -0.000156558 max: 0.400778 average: 0.0563365
ExecutionTime = 6.68 s  ClockTime = 6 s

Time = 74

smoothSolver:  Solving for Ux, Initial residual = 0.00202009, Final residual = 8.88015e-06, No Iterations 8
smoothSolver:  Solving for Uy, Initial residual = 0.00107839, Final residual = 6.62298e-06, No Iterations 8
GAMG:  Solving for p, Initial residual = 0.000961998, Final residual = 7.34017e-06, No Iterations 5
time step continuity errors : sum local = 2.29411e-06, global = -5.14266e-18, cumulative = 1.25011e-15
smoothSolver:  Solving for nuTilda, Initial residual = 0.0015009, Final residual = 7.03981e-06, No Iterations 8
ExecutionTime = 6.76 s  ClockTime = 6 s

Time = 75

smoothSolver:  Solving for Ux, Initial residual = 0.00199926, Final residual = 8.77312e-06, No Iterations 8
smoothSolver:  Solving for Uy, Initial residual = 0.00106971, Final residual = 6.55877e-06, No Iterations 8
GAMG:  Solving for p, Initial residual = 0.000946584, Final residual = 7.4058e-06, No Iterations 5
time step continuity errors : sum local = 2.31788e-06, global = 5.11893e-18, cumulative = 1.25523e-15
smoothSolver:  Solving for nuTilda, Initial residual = 0.00146706, Final residual = 6.87285e-06, No Iterations 8
bounding nuTilda, min: -0.000149516 max: 0.400777 average: 0.0555681
ExecutionTime = 6.84 s  ClockTime = 6 s

forces wings output:
    sum of forces:
        pressure : (1.28063 12.1844 -4.14635e-20)
        viscous  : (0.347862 -0.0362277 -9.43638e-22)
        porous   : (0 0 0)
    sum of moments:
        pressure : (-0.60922 0.0640316 0.364121)
        viscous  : (0.00181139 0.0173931 -8.83071e-05)
        porous   : (0 0 0)

Time = 76

smoothSolver:  Solving for Ux, Initial residual = 0.00198013, Final residual = 8.67502e-06, No Iterations 8
smoothSolver:  Solving for Uy, Initial residual = 0.00106036, Final residual = 6.49249e-06, No Iterations 8
GAMG:  Solving for p, Initial residual = 0.000926993, Final residual = 4.59335e-06, No Iterations 5
time step continuity errors : sum local = 1.43865e-06, global = 1.71847e-16, cumulative = 1.42708e-15
smoothSolver:  Solving for nuTilda, Initial residual = 0.00143418, Final residual = 6.71083e-06, No Iterations 8
ExecutionTime = 6.93 s  ClockTime = 7 s

Time = 77

smoothSolver:  Solving for Ux, Initial residual = 0.00196318, Final residual = 8.58907e-06, No Iterations 8
smoothSolver:  Solving for Uy, Initial residual = 0.00105017, Final residual = 6.42298e-06, No Iterations 8
GAMG:  Solving for p, Initial residual = 0.000909521, Final residual = 7.42893e-06, No Iterations 5
time step continuity errors : sum local = 2.32801e-06, global = 1.43894e-16, cumulative = 1.57097e-15
smoothSolver:  Solving for nuTilda, Initial residual = 0.0014023, Final residual = 6.5529e-06, No Iterations 8
bounding nuTilda, min: -0.000141924 max: 0.400777 average: 0.0548225
ExecutionTime = 7.01 s  ClockTime = 7 s

Time = 78

smoothSolver:  Solving for Ux, Initial residual = 0.00194477, Final residual = 8.49091e-06, No Iterations 8
smoothSolver:  Solving for Uy, Initial residual = 0.001041, Final residual = 6.35431e-06, No Iterations 8
GAMG:  Solving for p, Initial residual = 0.000889652, Final residual = 7.09725e-06, No Iterations 5
time step continuity errors : sum local = 2.22494e-06, global = 1.46333e-16, cumulative = 1.7173e-15
smoothSolver:  Solving for nuTilda, Initial residual = 0.00137136, Final residual = 6.39917e-06, No Iterations 8
ExecutionTime = 7.1 s  ClockTime = 7 s

Time = 79

smoothSolver:  Solving for Ux, Initial residual = 0.00192661, Final residual = 8.3949e-06, No Iterations 8
smoothSolver:  Solving for Uy, Initial residual = 0.00103167, Final residual = 6.28457e-06, No Iterations 8
GAMG:  Solving for p, Initial residual = 0.000875872, Final residual = 6.6839e-06, No Iterations 5
time step continuity errors : sum local = 2.0959e-06, global = 1.92237e-16, cumulative = 1.90954e-15
smoothSolver:  Solving for nuTilda, Initial residual = 0.0013412, Final residual = 6.24931e-06, No Iterations 8
bounding nuTilda, min: -0.000133851 max: 0.400776 average: 0.0540988
ExecutionTime = 7.18 s  ClockTime = 7 s

Time = 80

smoothSolver:  Solving for Ux, Initial residual = 0.00190926, Final residual = 8.30422e-06, No Iterations 8
smoothSolver:  Solving for Uy, Initial residual = 0.00102201, Final residual = 6.21409e-06, No Iterations 8
GAMG:  Solving for p, Initial residual = 0.00086165, Final residual = 4.41706e-06, No Iterations 5
time step continuity errors : sum local = 1.3826e-06, global = 1.05448e-16, cumulative = 2.01499e-15
smoothSolver:  Solving for nuTilda, Initial residual = 0.00131195, Final residual = 6.10369e-06, No Iterations 8
ExecutionTime = 7.27 s  ClockTime = 7 s

forces wings output:
    sum of forces:
        pressure : (1.31935 12.5528 -4.14309e-20)
        viscous  : (0.337508 -0.0351398 -1.02823e-21)
        porous   : (0 0 0)
    sum of moments:
        pressure : (-0.62764 0.0659676 0.382361)
        viscous  : (0.00175699 0.0168754 -8.83432e-05)
        porous   : (0 0 0)

Time = 81

smoothSolver:  Solving for Ux, Initial residual = 0.00189316, Final residual = 8.22099e-06, No Iterations 8
smoothSolver:  Solving for Uy, Initial residual = 0.00101199, Final residual = 6.14289e-06, No Iterations 8
GAMG:  Solving for p, Initial residual = 0.000851052, Final residual = 7.25488e-06, No Iterations 5
time step continuity errors : sum local = 2.2737e-06, global = -4.3794e-17, cumulative = 1.9712e-15
smoothSolver:  Solving for nuTilda, Initial residual = 0.00128348, Final residual = 5.96246e-06, No Iterations 8
bounding nuTilda, min: -0.000125108 max: 0.400776 average: 0.0533963
ExecutionTime = 7.36 s  ClockTime = 7 s

Time = 82

smoothSolver:  Solving for Ux, Initial residual = 0.00187616, Final residual = 8.12909e-06, No Iterations 8
smoothSolver:  Solving for Uy, Initial residual = 0.00100273, Final residual = 6.07246e-06, No Iterations 8
GAMG:  Solving for p, Initial residual = 0.000836975, Final residual = 7.15567e-06, No Iterations 5
time step continuity errors : sum local = 2.2439e-06, global = -2.04072e-16, cumulative = 1.76712e-15
smoothSolver:  Solving for nuTilda, Initial residual = 0.00125584, Final residual = 5.82533e-06, No Iterations 8
ExecutionTime = 7.44 s  ClockTime = 7 s

Time = 83

smoothSolver:  Solving for Ux, Initial residual = 0.00185978, Final residual = 8.04086e-06, No Iterations 8
smoothSolver:  Solving for Uy, Initial residual = 0.000993134, Final residual = 6.00087e-06, No Iterations 8
GAMG:  Solving for p, Initial residual = 0.000826734, Final residual = 6.66e-06, No Iterations 5
time step continuity errors : sum local = 2.09101e-06, global = -7.58514e-17, cumulative = 1.69127e-15
smoothSolver:  Solving for nuTilda, Initial residual = 0.00122902, Final residual = 5.69219e-06, No Iterations 8
bounding nuTilda, min: -0.000115805 max: 0.400777 average: 0.0527139
ExecutionTime = 7.52 s  ClockTime = 7 s

Time = 84

smoothSolver:  Solving for Ux, Initial residual = 0.0018444, Final residual = 7.95883e-06, No Iterations 8
smoothSolver:  Solving for Uy, Initial residual = 0.000982999, Final residual = 5.92784e-06, No Iterations 8
GAMG:  Solving for p, Initial residual = 0.000815931, Final residual = 4.48592e-06, No Iterations 5
time step continuity errors : sum local = 1.40131e-06, global = 7.09581e-17, cumulative = 1.76223e-15
smoothSolver:  Solving for nuTilda, Initial residual = 0.00120303, Final residual = 5.56289e-06, No Iterations 8
ExecutionTime = 7.61 s  ClockTime = 7 s

Time = 85

smoothSolver:  Solving for Ux, Initial residual = 0.0018297, Final residual = 7.88192e-06, No Iterations 8
smoothSolver:  Solving for Uy, Initial residual = 0.000972694, Final residual = 5.85422e-06, No Iterations 8
GAMG:  Solving for p, Initial residual = 0.00080763, Final residual = 6.52843e-06, No Iterations 5
time step continuity errors : sum local = 2.0501e-06, global = 3.25002e-16, cumulative = 2.08723e-15
smoothSolver:  Solving for nuTilda, Initial residual = 0.00117787, Final residual = 5.43737e-06, No Iterations 8
bounding nuTilda, min: -0.000105825 max: 0.400777 average: 0.052051
ExecutionTime = 7.69 s  ClockTime = 7 s

forces wings output:
    sum of forces:
        pressure : (1.35601 12.9016 -4.1864e-20)
        viscous  : (0.32754 -0.0341039 -1.10744e-21)
        porous   : (0 0 0)
    sum of moments:
        pressure : (-0.645078 0.0678004 0.395589)
        viscous  : (0.00170519 0.016377 -8.56897e-05)
        porous   : (0 0 0)

Time = 86

smoothSolver:  Solving for Ux, Initial residual = 0.00181418, Final residual = 7.79718e-06, No Iterations 8
smoothSolver:  Solving for Uy, Initial residual = 0.00096299, Final residual = 5.78105e-06, No Iterations 8
GAMG:  Solving for p, Initial residual = 0.000797506, Final residual = 6.48436e-06, No Iterations 5
time step continuity errors : sum local = 2.03559e-06, global = 3.92087e-17, cumulative = 2.12644e-15
smoothSolver:  Solving for nuTilda, Initial residual = 0.00115336, Final residual = 5.31518e-06, No Iterations 8
ExecutionTime = 7.77 s  ClockTime = 7 s

Time = 87

smoothSolver:  Solving for Ux, Initial residual = 0.00179869, Final residual = 7.71351e-06, No Iterations 8
smoothSolver:  Solving for Uy, Initial residual = 0.000953286, Final residual = 5.70743e-06, No Iterations 8
GAMG:  Solving for p, Initial residual = 0.000792855, Final residual = 6.36599e-06, No Iterations 5
time step continuity errors : sum local = 2.00007e-06, global = 7.13365e-17, cumulative = 2.19778e-15
smoothSolver:  Solving for nuTilda, Initial residual = 0.00112944, Final residual = 5.19625e-06, No Iterations 8
bounding nuTilda, min: -9.51513e-05 max: 0.400778 average: 0.0514068
ExecutionTime = 7.86 s  ClockTime = 7 s

Time = 88

smoothSolver:  Solving for Ux, Initial residual = 0.00178409, Final residual = 7.63468e-06, No Iterations 8
smoothSolver:  Solving for Uy, Initial residual = 0.000943104, Final residual = 5.63291e-06, No Iterations 8
GAMG:  Solving for p, Initial residual = 0.000785637, Final residual = 4.31846e-06, No Iterations 5
time step continuity errors : sum local = 1.34924e-06, global = -1.26629e-17, cumulative = 2.18511e-15
smoothSolver:  Solving for nuTilda, Initial residual = 0.00110616, Final residual = 5.08055e-06, No Iterations 8
ExecutionTime = 7.94 s  ClockTime = 8 s

Time = 89

smoothSolver:  Solving for Ux, Initial residual = 0.00177032, Final residual = 7.56208e-06, No Iterations 8
smoothSolver:  Solving for Uy, Initial residual = 0.000932632, Final residual = 5.55796e-06, No Iterations 8
GAMG:  Solving for p, Initial residual = 0.000783673, Final residual = 6.5769e-06, No Iterations 5
time step continuity errors : sum local = 2.066e-06, global = -1.93817e-17, cumulative = 2.16573e-15
smoothSolver:  Solving for nuTilda, Initial residual = 0.00108358, Final residual = 4.968e-06, No Iterations 8
bounding nuTilda, min: -8.37721e-05 max: 0.400779 average: 0.0507806
ExecutionTime = 8.02 s  ClockTime = 8 s

Time = 90

smoothSolver:  Solving for Ux, Initial residual = 0.0017559, Final residual = 7.48272e-06, No Iterations 8
smoothSolver:  Solving for Uy, Initial residual = 0.000922656, Final residual = 5.48317e-06, No Iterations 8
GAMG:  Solving for p, Initial residual = 0.000777214, Final residual = 6.40855e-06, No Iterations 5
time step continuity errors : sum local = 2.01184e-06, global = 1.66818e-16, cumulative = 2.33255e-15
smoothSolver:  Solving for nuTilda, Initial residual = 0.00106151, Final residual = 4.85816e-06, No Iterations 8
ExecutionTime = 8.1 s  ClockTime = 8 s

forces wings output:
    sum of forces:
        pressure : (1.39275 13.2511 -4.30717e-20)
        viscous  : (0.318401 -0.0331652 -1.1881e-21)
        porous   : (0 0 0)
    sum of moments:
        pressure : (-0.662555 0.0696374 0.40704)
        viscous  : (0.00165826 0.01592 -8.05838e-05)
        porous   : (0 0 0)

Time = 91

smoothSolver:  Solving for Ux, Initial residual = 0.00174157, Final residual = 7.40512e-06, No Iterations 8
smoothSolver:  Solving for Uy, Initial residual = 0.000912547, Final residual = 5.40802e-06, No Iterations 8
GAMG:  Solving for p, Initial residual = 0.000775804, Final residual = 4.47225e-06, No Iterations 5
time step continuity errors : sum local = 1.39942e-06, global = 4.02519e-17, cumulative = 2.3728e-15
smoothSolver:  Solving for nuTilda, Initial residual = 0.00103981, Final residual = 4.75071e-06, No Iterations 8
bounding nuTilda, min: -7.19583e-05 max: 0.40078 average: 0.0501718
ExecutionTime = 8.19 s  ClockTime = 8 s

Time = 92

smoothSolver:  Solving for Ux, Initial residual = 0.00172823, Final residual = 7.33462e-06, No Iterations 8
smoothSolver:  Solving for Uy, Initial residual = 0.000901902, Final residual = 5.33234e-06, No Iterations 8
GAMG:  Solving for p, Initial residual = 0.000769477, Final residual = 7.06224e-06, No Iterations 5
time step continuity errors : sum local = 2.21879e-06, global = 4.16077e-17, cumulative = 2.41441e-15
smoothSolver:  Solving for nuTilda, Initial residual = 0.00101864, Final residual = 4.64606e-06, No Iterations 8
ExecutionTime = 8.27 s  ClockTime = 8 s

Time = 93

smoothSolver:  Solving for Ux, Initial residual = 0.00171407, Final residual = 7.25867e-06, No Iterations 8
smoothSolver:  Solving for Uy, Initial residual = 0.000891751, Final residual = 5.25697e-06, No Iterations 8
GAMG:  Solving for p, Initial residual = 0.000759326, Final residual = 7.07836e-06, No Iterations 5
time step continuity errors : sum local = 2.22533e-06, global = -3.65092e-16, cumulative = 2.04932e-15
smoothSolver:  Solving for nuTilda, Initial residual = 0.000998026, Final residual = 4.54439e-06, No Iterations 8
bounding nuTilda, min: -5.99002e-05 max: 0.400781 average: 0.0495797
ExecutionTime = 8.35 s  ClockTime = 8 s

Time = 94

smoothSolver:  Solving for Ux, Initial residual = 0.00170017, Final residual = 7.18617e-06, No Iterations 8
smoothSolver:  Solving for Uy, Initial residual = 0.000881153, Final residual = 5.18095e-06, No Iterations 8
GAMG:  Solving for p, Initial residual = 0.000746555, Final residual = 5.28116e-06, No Iterations 5
time step continuity errors : sum local = 1.64875e-06, global = -6.52183e-17, cumulative = 1.9841e-15
smoothSolver:  Solving for nuTilda, Initial residual = 0.000977898, Final residual = 4.44521e-06, No Iterations 8
ExecutionTime = 8.44 s  ClockTime = 8 s

Time = 95

smoothSolver:  Solving for Ux, Initial residual = 0.00168692, Final residual = 7.11706e-06, No Iterations 8
smoothSolver:  Solving for Uy, Initial residual = 0.00087044, Final residual = 5.10576e-06, No Iterations 8
GAMG:  Solving for p, Initial residual = 0.000738141, Final residual = 7.16291e-06, No Iterations 5
time step continuity errors : sum local = 2.25257e-06, global = 3.94223e-16, cumulative = 2.37832e-15
smoothSolver:  Solving for nuTilda, Initial residual = 0.00095828, Final residual = 4.34856e-06, No Iterations 8
bounding nuTilda, min: -4.71317e-05 max: 0.400782 average: 0.0490039
ExecutionTime = 8.52 s  ClockTime = 8 s

forces wings output:
    sum of forces:
        pressure : (1.42993 13.6049 -4.40043e-20)
        viscous  : (0.310178 -0.0323439 -1.23451e-21)
        porous   : (0 0 0)
    sum of moments:
        pressure : (-0.680245 0.0714966 0.419487)
        viscous  : (0.0016172 0.0155089 -7.02682e-05)
        porous   : (0 0 0)

Time = 96

smoothSolver:  Solving for Ux, Initial residual = 0.00167313, Final residual = 7.0416e-06, No Iterations 8
smoothSolver:  Solving for Uy, Initial residual = 0.000860458, Final residual = 5.03156e-06, No Iterations 8
GAMG:  Solving for p, Initial residual = 0.000730186, Final residual = 4.71088e-06, No Iterations 5
time step continuity errors : sum local = 1.47214e-06, global = 5.81589e-17, cumulative = 2.43648e-15
smoothSolver:  Solving for nuTilda, Initial residual = 0.000939145, Final residual = 4.25435e-06, No Iterations 8
ExecutionTime = 8.6 s  ClockTime = 8 s

Time = 97

smoothSolver:  Solving for Ux, Initial residual = 0.00166001, Final residual = 6.9713e-06, No Iterations 8
smoothSolver:  Solving for Uy, Initial residual = 0.000849931, Final residual = 4.95615e-06, No Iterations 8
GAMG:  Solving for p, Initial residual = 0.000721796, Final residual = 6.44124e-06, No Iterations 5
time step continuity errors : sum local = 2.02742e-06, global = 2.09013e-16, cumulative = 2.6455e-15
smoothSolver:  Solving for nuTilda, Initial residual = 0.000920459, Final residual = 4.1625e-06, No Iterations 8
bounding nuTilda, min: -3.38021e-05 max: 0.400784 average: 0.0484436
ExecutionTime = 8.69 s  ClockTime = 8 s

Time = 98

smoothSolver:  Solving for Ux, Initial residual = 0.00164652, Final residual = 6.89735e-06, No Iterations 8
smoothSolver:  Solving for Uy, Initial residual = 0.000839751, Final residual = 4.8809e-06, No Iterations 8
GAMG:  Solving for p, Initial residual = 0.000712843, Final residual = 4.53577e-06, No Iterations 5
time step continuity errors : sum local = 1.41767e-06, global = -7.9007e-17, cumulative = 2.56649e-15
smoothSolver:  Solving for nuTilda, Initial residual = 0.000902242, Final residual = 4.07287e-06, No Iterations 8
ExecutionTime = 8.77 s  ClockTime = 8 s

Time = 99

smoothSolver:  Solving for Ux, Initial residual = 0.00163351, Final residual = 6.82816e-06, No Iterations 8
smoothSolver:  Solving for Uy, Initial residual = 0.000829277, Final residual = 4.80572e-06, No Iterations 8
GAMG:  Solving for p, Initial residual = 0.000704278, Final residual = 4.13438e-06, No Iterations 5
time step continuity errors : sum local = 1.2956e-06, global = -2.86679e-16, cumulative = 2.27981e-15
smoothSolver:  Solving for nuTilda, Initial residual = 0.000884468, Final residual = 3.98546e-06, No Iterations 8
bounding nuTilda, min: -1.9892e-05 max: 0.400786 average: 0.0478986
ExecutionTime = 8.87 s  ClockTime = 8 s

Time = 100

smoothSolver:  Solving for Ux, Initial residual = 0.00162066, Final residual = 6.75932e-06, No Iterations 8
smoothSolver:  Solving for Uy, Initial residual = 0.000819005, Final residual = 4.73157e-06, No Iterations 8
GAMG:  Solving for p, Initial residual = 0.00069826, Final residual = 5.85707e-06, No Iterations 5
time step continuity errors : sum local = 1.84478e-06, global = -1.03157e-16, cumulative = 2.17665e-15
smoothSolver:  Solving for nuTilda, Initial residual = 0.000867133, Final residual = 3.90025e-06, No Iterations 8
ExecutionTime = 8.96 s  ClockTime = 9 s

forces wings output:
    sum of forces:
        pressure : (1.4647 13.9357 -4.37902e-20)
        viscous  : (0.302618 -0.0315801 -1.31973e-21)
        porous   : (0 0 0)
    sum of moments:
        pressure : (-0.696786 0.0732352 0.429819)
        viscous  : (0.00157901 0.0151309 -6.306e-05)
        porous   : (0 0 0)

Time = 101

smoothSolver:  Solving for Ux, Initial residual = 0.00160742, Final residual = 6.68704e-06, No Iterations 8
smoothSolver:  Solving for Uy, Initial residual = 0.000808888, Final residual = 4.65708e-06, No Iterations 8
GAMG:  Solving for p, Initial residual = 0.000692709, Final residual = 4.21545e-06, No Iterations 5
time step continuity errors : sum local = 1.31944e-06, global = 5.04656e-17, cumulative = 2.22712e-15
smoothSolver:  Solving for nuTilda, Initial residual = 0.000850229, Final residual = 3.8172e-06, No Iterations 8
bounding nuTilda, min: -5.61915e-06 max: 0.400787 average: 0.0473681
ExecutionTime = 9.05 s  ClockTime = 9 s

Time = 102

smoothSolver:  Solving for Ux, Initial residual = 0.00159472, Final residual = 6.6194e-06, No Iterations 8
smoothSolver:  Solving for Uy, Initial residual = 0.000798358, Final residual = 4.58257e-06, No Iterations 8
GAMG:  Solving for p, Initial residual = 0.000685996, Final residual = 4.07834e-06, No Iterations 5
time step continuity errors : sum local = 1.27688e-06, global = 9.68523e-17, cumulative = 2.32397e-15
smoothSolver:  Solving for nuTilda, Initial residual = 0.000833762, Final residual = 3.7362e-06, No Iterations 8
ExecutionTime = 9.13 s  ClockTime = 9 s

Time = 103

smoothSolver:  Solving for Ux, Initial residual = 0.0015822, Final residual = 6.55299e-06, No Iterations 8
smoothSolver:  Solving for Uy, Initial residual = 0.000787671, Final residual = 4.50787e-06, No Iterations 8
GAMG:  Solving for p, Initial residual = 0.000679508, Final residual = 3.78651e-06, No Iterations 5
time step continuity errors : sum local = 1.1863e-06, global = 1.52405e-16, cumulative = 2.47638e-15
smoothSolver:  Solving for nuTilda, Initial residual = 0.000817676, Final residual = 3.65705e-06, No Iterations 8
ExecutionTime = 9.21 s  ClockTime = 9 s

Time = 104

smoothSolver:  Solving for Ux, Initial residual = 0.00156976, Final residual = 6.48636e-06, No Iterations 8
smoothSolver:  Solving for Uy, Initial residual = 0.00077697, Final residual = 4.43333e-06, No Iterations 8
GAMG:  Solving for p, Initial residual = 0.000670389, Final residual = 5.22059e-06, No Iterations 5
time step continuity errors : sum local = 1.6476e-06, global = -3.9574e-17, cumulative = 2.4368e-15
smoothSolver:  Solving for nuTilda, Initial residual = 0.000801901, Final residual = 3.57944e-06, No Iterations 8
bounding nuTilda, min: -0.000103377 max: 0.40079 average: 0.0465989
ExecutionTime = 9.29 s  ClockTime = 9 s

Time = 105

smoothSolver:  Solving for Ux, Initial residual = 0.00155705, Final residual = 6.41737e-06, No Iterations 8
smoothSolver:  Solving for Uy, Initial residual = 0.000766457, Final residual = 4.35915e-06, No Iterations 8
GAMG:  Solving for p, Initial residual = 0.000662368, Final residual = 4.22496e-06, No Iterations 5
time step continuity errors : sum local = 1.32692e-06, global = -1.52191e-16, cumulative = 2.28461e-15
smoothSolver:  Solving for nuTilda, Initial residual = 0.000786519, Final residual = 3.50349e-06, No Iterations 8
ExecutionTime = 9.38 s  ClockTime = 9 s

forces wings output:
    sum of forces:
        pressure : (1.49881 14.2602 -4.39116e-20)
        viscous  : (0.295472 -0.0308623 -1.39428e-21)
        porous   : (0 0 0)
    sum of moments:
        pressure : (-0.713012 0.0749406 0.438955)
        viscous  : (0.00154312 0.0147736 -5.52759e-05)
        porous   : (0 0 0)

Time = 106

smoothSolver:  Solving for Ux, Initial residual = 0.00154478, Final residual = 6.3518e-06, No Iterations 8
smoothSolver:  Solving for Uy, Initial residual = 0.000755781, Final residual = 4.2853e-06, No Iterations 8
GAMG:  Solving for p, Initial residual = 0.000659473, Final residual = 4.30193e-06, No Iterations 5
time step continuity errors : sum local = 1.35242e-06, global = 2.45623e-17, cumulative = 2.30917e-15
smoothSolver:  Solving for nuTilda, Initial residual = 0.000771459, Final residual = 3.42945e-06, No Iterations 8
ExecutionTime = 9.46 s  ClockTime = 9 s

Time = 107

smoothSolver:  Solving for Ux, Initial residual = 0.00153267, Final residual = 6.28733e-06, No Iterations 8
smoothSolver:  Solving for Uy, Initial residual = 0.000744952, Final residual = 4.21199e-06, No Iterations 8
GAMG:  Solving for p, Initial residual = 0.000650973, Final residual = 4.20329e-06, No Iterations 5
time step continuity errors : sum local = 1.32112e-06, global = 8.37133e-17, cumulative = 2.39289e-15
smoothSolver:  Solving for nuTilda, Initial residual = 0.000756652, Final residual = 3.3571e-06, No Iterations 8
bounding nuTilda, min: -5.26008e-05 max: 0.400793 average: 0.0458602
ExecutionTime = 9.54 s  ClockTime = 9 s

Time = 108

smoothSolver:  Solving for Ux, Initial residual = 0.00152066, Final residual = 6.22286e-06, No Iterations 8
smoothSolver:  Solving for Uy, Initial residual = 0.000734287, Final residual = 4.13956e-06, No Iterations 8
GAMG:  Solving for p, Initial residual = 0.000643405, Final residual = 4.07069e-06, No Iterations 5
time step continuity errors : sum local = 1.27894e-06, global = -2.87169e-16, cumulative = 2.10572e-15
smoothSolver:  Solving for nuTilda, Initial residual = 0.000742314, Final residual = 3.28636e-06, No Iterations 8
ExecutionTime = 9.62 s  ClockTime = 9 s

Time = 109

smoothSolver:  Solving for Ux, Initial residual = 0.00150864, Final residual = 6.15784e-06, No Iterations 8
smoothSolver:  Solving for Uy, Initial residual = 0.000723781, Final residual = 4.0678e-06, No Iterations 8
GAMG:  Solving for p, Initial residual = 0.000640087, Final residual = 4.0296e-06, No Iterations 5
time step continuity errors : sum local = 1.26634e-06, global = -1.58103e-16, cumulative = 1.94761e-15
smoothSolver:  Solving for nuTilda, Initial residual = 0.000728202, Final residual = 3.21749e-06, No Iterations 8
ExecutionTime = 9.71 s  ClockTime = 9 s

Time = 110

smoothSolver:  Solving for Ux, Initial residual = 0.00149652, Final residual = 6.09328e-06, No Iterations 8
smoothSolver:  Solving for Uy, Initial residual = 0.000713087, Final residual = 3.99611e-06, No Iterations 8
GAMG:  Solving for p, Initial residual = 0.000628295, Final residual = 4.19859e-06, No Iterations 5
time step continuity errors : sum local = 1.32186e-06, global = -1.43583e-16, cumulative = 1.80403e-15
smoothSolver:  Solving for nuTilda, Initial residual = 0.00071439, Final residual = 3.15044e-06, No Iterations 8
bounding nuTilda, min: -7.66122e-07 max: 0.400796 average: 0.0451507
ExecutionTime = 9.79 s  ClockTime = 9 s

forces wings output:
    sum of forces:
        pressure : (1.53127 14.5691 -4.42424e-20)
        viscous  : (0.288783 -0.0301816 -1.44182e-21)
        porous   : (0 0 0)
    sum of moments:
        pressure : (-0.728455 0.0765637 0.446223)
        viscous  : (0.00150908 0.0144391 -5.01413e-05)
        porous   : (0 0 0)

Time = 111

smoothSolver:  Solving for Ux, Initial residual = 0.00148462, Final residual = 6.0304e-06, No Iterations 8
smoothSolver:  Solving for Uy, Initial residual = 0.000702019, Final residual = 3.92339e-06, No Iterations 8
GAMG:  Solving for p, Initial residual = 0.000617706, Final residual = 4.3931e-06, No Iterations 5
time step continuity errors : sum local = 1.38587e-06, global = 1.85984e-17, cumulative = 1.82263e-15
smoothSolver:  Solving for nuTilda, Initial residual = 0.000700934, Final residual = 3.08506e-06, No Iterations 8
ExecutionTime = 9.87 s  ClockTime = 9 s

Time = 112

smoothSolver:  Solving for Ux, Initial residual = 0.00147294, Final residual = 5.96888e-06, No Iterations 8
smoothSolver:  Solving for Uy, Initial residual = 0.000690767, Final residual = 3.85053e-06, No Iterations 8
GAMG:  Solving for p, Initial residual = 0.000611761, Final residual = 4.49673e-06, No Iterations 5
time step continuity errors : sum local = 1.42049e-06, global = -6.42048e-17, cumulative = 1.75842e-15
smoothSolver:  Solving for nuTilda, Initial residual = 0.000687806, Final residual = 3.02119e-06, No Iterations 8
ExecutionTime = 9.96 s  ClockTime = 10 s

Time = 113

smoothSolver:  Solving for Ux, Initial residual = 0.00146124, Final residual = 5.90747e-06, No Iterations 8
smoothSolver:  Solving for Uy, Initial residual = 0.000679672, Final residual = 3.77935e-06, No Iterations 8
GAMG:  Solving for p, Initial residual = 0.000600657, Final residual = 4.51563e-06, No Iterations 5
time step continuity errors : sum local = 1.42732e-06, global = 1.09595e-16, cumulative = 1.86802e-15
smoothSolver:  Solving for nuTilda, Initial residual = 0.000674961, Final residual = 2.95872e-06, No Iterations 8
ExecutionTime = 10.04 s  ClockTime = 10 s

Time = 114

smoothSolver:  Solving for Ux, Initial residual = 0.00144948, Final residual = 5.84523e-06, No Iterations 8
smoothSolver:  Solving for Uy, Initial residual = 0.00066911, Final residual = 3.71078e-06, No Iterations 8
GAMG:  Solving for p, Initial residual = 0.000591926, Final residual = 4.48336e-06, No Iterations 5
time step continuity errors : sum local = 1.41692e-06, global = -9.86408e-17, cumulative = 1.76938e-15
smoothSolver:  Solving for nuTilda, Initial residual = 0.000662409, Final residual = 2.89778e-06, No Iterations 8
ExecutionTime = 10.12 s  ClockTime = 10 s

Time = 115

smoothSolver:  Solving for Ux, Initial residual = 0.00143766, Final residual = 5.78214e-06, No Iterations 8
smoothSolver:  Solving for Uy, Initial residual = 0.000658951, Final residual = 3.64426e-06, No Iterations 8
GAMG:  Solving for p, Initial residual = 0.000583795, Final residual = 4.44112e-06, No Iterations 5
time step continuity errors : sum local = 1.40126e-06, global = -2.66144e-16, cumulative = 1.50324e-15
smoothSolver:  Solving for nuTilda, Initial residual = 0.000650143, Final residual = 2.83832e-06, No Iterations 8
ExecutionTime = 10.2 s  ClockTime = 10 s

forces wings output:
    sum of forces:
        pressure : (1.56162 14.8578 -4.48964e-20)
        viscous  : (0.282653 -0.0295506 -1.45319e-21)
        porous   : (0 0 0)
    sum of moments:
        pressure : (-0.742891 0.078081 0.451725)
        viscous  : (0.00147753 0.0141327 -4.7397e-05)
        porous   : (0 0 0)

Time = 116

smoothSolver:  Solving for Ux, Initial residual = 0.00142589, Final residual = 5.71952e-06, No Iterations 8
smoothSolver:  Solving for Uy, Initial residual = 0.00064881, Final residual = 3.57852e-06, No Iterations 8
GAMG:  Solving for p, Initial residual = 0.000576204, Final residual = 5.08084e-06, No Iterations 5
time step continuity errors : sum local = 1.60929e-06, global = -3.01192e-17, cumulative = 1.47312e-15
smoothSolver:  Solving for nuTilda, Initial residual = 0.000638171, Final residual = 2.7802e-06, No Iterations 8
ExecutionTime = 10.29 s  ClockTime = 10 s

Time = 117

smoothSolver:  Solving for Ux, Initial residual = 0.00141419, Final residual = 5.6569e-06, No Iterations 8
smoothSolver:  Solving for Uy, Initial residual = 0.000638568, Final residual = 3.51283e-06, No Iterations 8
[...]
    sum of forces:
        pressure : (1.54761 14.7245 -4.0045e-20)
        viscous  : (0.12567 -0.0130712 -1.96595e-21)
        porous   : (0 0 0)
    sum of moments:
        pressure : (-0.736226 0.0773805 0.249703)
        viscous  : (0.000653559 0.00628351 -5.07919e-05)
        porous   : (0 0 0)

Time = 4971

smoothSolver:  Solving for Ux, Initial residual = 7.87361e-08, Final residual = 2.92343e-09, No Iterations 4
smoothSolver:  Solving for Uy, Initial residual = 3.42216e-07, Final residual = 3.58475e-09, No Iterations 6
GAMG:  Solving for p, Initial residual = 3.0453e-06, Final residual = 6.28961e-07, No Iterations 1
time step continuity errors : sum local = 1.98791e-07, global = -5.84377e-17, cumulative = 4.61549e-14
smoothSolver:  Solving for nuTilda, Initial residual = 1.09847e-08, Final residual = 1.44136e-09, No Iterations 2
ExecutionTime = 363.84 s  ClockTime = 364 s

Time = 4972

smoothSolver:  Solving for Ux, Initial residual = 7.77721e-08, Final residual = 2.77857e-09, No Iterations 4
smoothSolver:  Solving for Uy, Initial residual = 3.31814e-07, Final residual = 3.42891e-09, No Iterations 6
GAMG:  Solving for p, Initial residual = 3.0068e-06, Final residual = 6.21364e-07, No Iterations 1
time step continuity errors : sum local = 1.96244e-07, global = -1.43872e-17, cumulative = 4.61405e-14
smoothSolver:  Solving for nuTilda, Initial residual = 1.56184e-08, Final residual = 1.39582e-09, No Iterations 2
ExecutionTime = 363.91 s  ClockTime = 364 s

Time = 4973

smoothSolver:  Solving for Ux, Initial residual = 7.57767e-08, Final residual = 2.71349e-09, No Iterations 4
smoothSolver:  Solving for Uy, Initial residual = 3.15339e-07, Final residual = 3.05614e-09, No Iterations 6
GAMG:  Solving for p, Initial residual = 3.0299e-06, Final residual = 6.27766e-07, No Iterations 1
time step continuity errors : sum local = 1.98562e-07, global = -2.5461e-16, cumulative = 4.58859e-14
smoothSolver:  Solving for nuTilda, Initial residual = 1.10003e-08, Final residual = 1.46105e-09, No Iterations 2
ExecutionTime = 363.97 s  ClockTime = 364 s

Time = 4974

smoothSolver:  Solving for Ux, Initial residual = 7.60745e-08, Final residual = 2.62419e-09, No Iterations 4
smoothSolver:  Solving for Uy, Initial residual = 2.86498e-07, Final residual = 2.53201e-09, No Iterations 6
GAMG:  Solving for p, Initial residual = 2.98221e-06, Final residual = 6.15759e-07, No Iterations 1
time step continuity errors : sum local = 1.94658e-07, global = -5.74449e-17, cumulative = 4.58285e-14
smoothSolver:  Solving for nuTilda, Initial residual = 1.54602e-08, Final residual = 1.37834e-09, No Iterations 2
ExecutionTime = 364.03 s  ClockTime = 364 s

Time = 4975

smoothSolver:  Solving for Ux, Initial residual = 7.67796e-08, Final residual = 2.79095e-09, No Iterations 4
smoothSolver:  Solving for Uy, Initial residual = 2.89011e-07, Final residual = 2.59386e-09, No Iterations 6
GAMG:  Solving for p, Initial residual = 3.00685e-06, Final residual = 6.1498e-07, No Iterations 1
time step continuity errors : sum local = 1.94635e-07, global = -2.01688e-16, cumulative = 4.56268e-14
smoothSolver:  Solving for nuTilda, Initial residual = 1.07061e-08, Final residual = 1.40838e-09, No Iterations 2
ExecutionTime = 364.09 s  ClockTime = 365 s

forces wings output:
    sum of forces:
        pressure : (1.54758 14.7242 -4.00629e-20)
        viscous  : (0.125664 -0.0130744 -1.96868e-21)
        porous   : (0 0 0)
    sum of moments:
        pressure : (-0.736209 0.0773788 0.249689)
        viscous  : (0.000653722 0.00628318 -4.98402e-05)
        porous   : (0 0 0)

Time = 4976

smoothSolver:  Solving for Ux, Initial residual = 7.89463e-08, Final residual = 2.84828e-09, No Iterations 4
smoothSolver:  Solving for Uy, Initial residual = 2.96592e-07, Final residual = 2.76119e-09, No Iterations 6
GAMG:  Solving for p, Initial residual = 2.96555e-06, Final residual = 6.01051e-07, No Iterations 1
time step continuity errors : sum local = 1.9006e-07, global = -1.81738e-16, cumulative = 4.54451e-14
smoothSolver:  Solving for nuTilda, Initial residual = 1.51459e-08, Final residual = 1.31897e-09, No Iterations 2
ExecutionTime = 364.16 s  ClockTime = 365 s

Time = 4977

smoothSolver:  Solving for Ux, Initial residual = 7.90401e-08, Final residual = 3.01053e-09, No Iterations 4
smoothSolver:  Solving for Uy, Initial residual = 3.08194e-07, Final residual = 3.02236e-09, No Iterations 6
GAMG:  Solving for p, Initial residual = 2.98175e-06, Final residual = 5.91564e-07, No Iterations 1
time step continuity errors : sum local = 1.87227e-07, global = -2.38393e-16, cumulative = 4.52067e-14
smoothSolver:  Solving for nuTilda, Initial residual = 1.05191e-08, Final residual = 1.36343e-09, No Iterations 2
ExecutionTime = 364.23 s  ClockTime = 365 s

Time = 4978

smoothSolver:  Solving for Ux, Initial residual = 8.05026e-08, Final residual = 2.99695e-09, No Iterations 4
smoothSolver:  Solving for Uy, Initial residual = 3.1256e-07, Final residual = 3.0962e-09, No Iterations 6
GAMG:  Solving for p, Initial residual = 2.93687e-06, Final residual = 5.66779e-07, No Iterations 1
time step continuity errors : sum local = 1.7918e-07, global = 1.21309e-16, cumulative = 4.5328e-14
smoothSolver:  Solving for nuTilda, Initial residual = 1.5128e-08, Final residual = 1.29233e-09, No Iterations 2
ExecutionTime = 364.3 s  ClockTime = 365 s

Time = 4979

smoothSolver:  Solving for Ux, Initial residual = 7.84018e-08, Final residual = 2.98196e-09, No Iterations 4
smoothSolver:  Solving for Uy, Initial residual = 3.1303e-07, Final residual = 3.10872e-09, No Iterations 6
GAMG:  Solving for p, Initial residual = 2.94986e-06, Final residual = 5.55355e-07, No Iterations 1
time step continuity errors : sum local = 1.75699e-07, global = 1.20987e-16, cumulative = 4.5449e-14
smoothSolver:  Solving for nuTilda, Initial residual = 1.05261e-08, Final residual = 1.34245e-09, No Iterations 2
ExecutionTime = 364.36 s  ClockTime = 365 s

Time = 4980

smoothSolver:  Solving for Ux, Initial residual = 7.91775e-08, Final residual = 2.89954e-09, No Iterations 4
smoothSolver:  Solving for Uy, Initial residual = 3.11877e-07, Final residual = 3.08561e-09, No Iterations 6
GAMG:  Solving for p, Initial residual = 2.90609e-06, Final residual = 5.49238e-07, No Iterations 1
time step continuity errors : sum local = 1.73502e-07, global = 1.07851e-17, cumulative = 4.54597e-14
smoothSolver:  Solving for nuTilda, Initial residual = 1.51129e-08, Final residual = 1.2857e-09, No Iterations 2
ExecutionTime = 364.42 s  ClockTime = 365 s

forces wings output:
    sum of forces:
        pressure : (1.54761 14.7245 -4.00456e-20)
        viscous  : (0.125671 -0.0130712 -1.96602e-21)
        porous   : (0 0 0)
    sum of moments:
        pressure : (-0.736225 0.0773805 0.249684)
        viscous  : (0.00065356 0.00628353 -5.07892e-05)
        porous   : (0 0 0)

Time = 4981

smoothSolver:  Solving for Ux, Initial residual = 7.59045e-08, Final residual = 2.77618e-09, No Iterations 4
smoothSolver:  Solving for Uy, Initial residual = 3.0244e-07, Final residual = 2.93168e-09, No Iterations 6
GAMG:  Solving for p, Initial residual = 2.93294e-06, Final residual = 5.50898e-07, No Iterations 1
time step continuity errors : sum local = 1.74083e-07, global = -2.64064e-17, cumulative = 4.54333e-14
smoothSolver:  Solving for nuTilda, Initial residual = 1.04234e-08, Final residual = 1.3234e-09, No Iterations 2
ExecutionTime = 364.49 s  ClockTime = 365 s

Time = 4982

smoothSolver:  Solving for Ux, Initial residual = 7.71864e-08, Final residual = 2.74074e-09, No Iterations 4
smoothSolver:  Solving for Uy, Initial residual = 3.01458e-07, Final residual = 2.95019e-09, No Iterations 6
GAMG:  Solving for p, Initial residual = 2.89943e-06, Final residual = 5.58502e-07, No Iterations 1
time step continuity errors : sum local = 1.76479e-07, global = 1.43304e-16, cumulative = 4.55766e-14
smoothSolver:  Solving for nuTilda, Initial residual = 1.49457e-08, Final residual = 1.247e-09, No Iterations 2
ExecutionTime = 364.55 s  ClockTime = 365 s

Time = 4983

smoothSolver:  Solving for Ux, Initial residual = 7.31781e-08, Final residual = 2.55907e-09, No Iterations 4
smoothSolver:  Solving for Uy, Initial residual = 2.73033e-07, Final residual = 2.4266e-09, No Iterations 6
GAMG:  Solving for p, Initial residual = 2.93809e-06, Final residual = 5.62521e-07, No Iterations 1
time step continuity errors : sum local = 1.77628e-07, global = 8.73398e-17, cumulative = 4.5664e-14
smoothSolver:  Solving for nuTilda, Initial residual = 1.02268e-08, Final residual = 1.27702e-09, No Iterations 2
ExecutionTime = 364.62 s  ClockTime = 365 s

Time = 4984

smoothSolver:  Solving for Ux, Initial residual = 7.4255e-08, Final residual = 2.54786e-09, No Iterations 4
smoothSolver:  Solving for Uy, Initial residual = 2.84599e-07, Final residual = 2.64293e-09, No Iterations 6
GAMG:  Solving for p, Initial residual = 2.89766e-06, Final residual = 5.67501e-07, No Iterations 1
time step continuity errors : sum local = 1.79399e-07, global = -1.36347e-16, cumulative = 4.55276e-14
smoothSolver:  Solving for nuTilda, Initial residual = 1.47893e-08, Final residual = 1.20784e-09, No Iterations 2
ExecutionTime = 364.68 s  ClockTime = 365 s

Time = 4985

smoothSolver:  Solving for Ux, Initial residual = 7.14698e-08, Final residual = 2.47353e-09, No Iterations 4
smoothSolver:  Solving for Uy, Initial residual = 2.63008e-07, Final residual = 9.39905e-09, No Iterations 4
GAMG:  Solving for p, Initial residual = 2.92267e-06, Final residual = 5.57866e-07, No Iterations 1
time step continuity errors : sum local = 1.76183e-07, global = 3.59306e-17, cumulative = 4.55636e-14
smoothSolver:  Solving for nuTilda, Initial residual = 1.01306e-08, Final residual = 1.24722e-09, No Iterations 2
ExecutionTime = 364.74 s  ClockTime = 365 s

forces wings output:
    sum of forces:
        pressure : (1.5476 14.7244 -4.00616e-20)
        viscous  : (0.125664 -0.0130744 -1.96868e-21)
        porous   : (0 0 0)
    sum of moments:
        pressure : (-0.736221 0.0773801 0.249766)
        viscous  : (0.000653722 0.00628318 -4.98401e-05)
        porous   : (0 0 0)

Time = 4986

smoothSolver:  Solving for Ux, Initial residual = 7.2046e-08, Final residual = 2.43234e-09, No Iterations 4
smoothSolver:  Solving for Uy, Initial residual = 2.83338e-07, Final residual = 2.60103e-09, No Iterations 6
GAMG:  Solving for p, Initial residual = 2.87989e-06, Final residual = 5.53714e-07, No Iterations 1
time step continuity errors : sum local = 1.75049e-07, global = -5.25286e-17, cumulative = 4.5511e-14
smoothSolver:  Solving for nuTilda, Initial residual = 1.47078e-08, Final residual = 1.1804e-09, No Iterations 2
ExecutionTime = 364.81 s  ClockTime = 365 s

Time = 4987

smoothSolver:  Solving for Ux, Initial residual = 7.00142e-08, Final residual = 2.39333e-09, No Iterations 4
smoothSolver:  Solving for Uy, Initial residual = 2.81129e-07, Final residual = 2.53772e-09, No Iterations 6
GAMG:  Solving for p, Initial residual = 2.90335e-06, Final residual = 5.37266e-07, No Iterations 1
time step continuity errors : sum local = 1.69661e-07, global = 2.85428e-16, cumulative = 4.57965e-14
smoothSolver:  Solving for nuTilda, Initial residual = 1.00405e-08, Final residual = 1.22046e-09, No Iterations 2
ExecutionTime = 364.88 s  ClockTime = 365 s

Time = 4988

smoothSolver:  Solving for Ux, Initial residual = 7.04111e-08, Final residual = 2.32588e-09, No Iterations 4
smoothSolver:  Solving for Uy, Initial residual = 2.9496e-07, Final residual = 2.83709e-09, No Iterations 6
GAMG:  Solving for p, Initial residual = 2.84982e-06, Final residual = 5.33051e-07, No Iterations 1
time step continuity errors : sum local = 1.6849e-07, global = 2.23691e-16, cumulative = 4.60202e-14
smoothSolver:  Solving for nuTilda, Initial residual = 1.45516e-08, Final residual = 1.14093e-09, No Iterations 2
ExecutionTime = 364.95 s  ClockTime = 365 s

Time = 4989

smoothSolver:  Solving for Ux, Initial residual = 6.94799e-08, Final residual = 2.36068e-09, No Iterations 4
smoothSolver:  Solving for Uy, Initial residual = 2.94815e-07, Final residual = 2.8359e-09, No Iterations 6
GAMG:  Solving for p, Initial residual = 2.88261e-06, Final residual = 5.25868e-07, No Iterations 1
time step continuity errors : sum local = 1.66086e-07, global = -1.12692e-16, cumulative = 4.59075e-14
smoothSolver:  Solving for nuTilda, Initial residual = 9.8553e-09, Final residual = 9.8553e-09, No Iterations 0
ExecutionTime = 365.01 s  ClockTime = 365 s

Time = 4990

smoothSolver:  Solving for Ux, Initial residual = 6.39862e-08, Final residual = 2.45679e-09, No Iterations 4
smoothSolver:  Solving for Uy, Initial residual = 2.25408e-07, Final residual = 3.00834e-09, No Iterations 6
GAMG:  Solving for p, Initial residual = 3.58662e-06, Final residual = 6.68779e-07, No Iterations 1
time step continuity errors : sum local = 2.11272e-07, global = 1.84847e-17, cumulative = 4.5926e-14
smoothSolver:  Solving for nuTilda, Initial residual = 1.03117e-08, Final residual = 1.22411e-09, No Iterations 2
ExecutionTime = 365.08 s  ClockTime = 365 s

forces wings output:
    sum of forces:
        pressure : (1.54762 14.7246 -4.00803e-20)
        viscous  : (0.125659 -0.0130761 -1.96822e-21)
        porous   : (0 0 0)
    sum of moments:
        pressure : (-0.736228 0.0773808 0.249722)
        viscous  : (0.000653804 0.00628294 -4.93211e-05)
        porous   : (0 0 0)

Time = 4991

smoothSolver:  Solving for Ux, Initial residual = 1.00808e-07, Final residual = 2.9936e-09, No Iterations 4
smoothSolver:  Solving for Uy, Initial residual = 4.14288e-07, Final residual = 4.35476e-09, No Iterations 6
GAMG:  Solving for p, Initial residual = 3.96254e-06, Final residual = 7.22399e-07, No Iterations 1
time step continuity errors : sum local = 2.28458e-07, global = -2.37301e-16, cumulative = 4.56887e-14
smoothSolver:  Solving for nuTilda, Initial residual = 1.50604e-08, Final residual = 1.16202e-09, No Iterations 2
ExecutionTime = 365.16 s  ClockTime = 366 s

Time = 4992

smoothSolver:  Solving for Ux, Initial residual = 1.14818e-07, Final residual = 5.91897e-09, No Iterations 4
smoothSolver:  Solving for Uy, Initial residual = 5.40508e-07, Final residual = 7.87506e-09, No Iterations 6
GAMG:  Solving for p, Initial residual = 2.66398e-06, Final residual = 4.89709e-07, No Iterations 1
time step continuity errors : sum local = 1.54848e-07, global = 3.07273e-17, cumulative = 4.57194e-14
smoothSolver:  Solving for nuTilda, Initial residual = 9.98134e-09, Final residual = 9.98134e-09, No Iterations 0
ExecutionTime = 365.22 s  ClockTime = 366 s

Time = 4993

smoothSolver:  Solving for Ux, Initial residual = 8.86157e-08, Final residual = 4.22041e-09, No Iterations 4
smoothSolver:  Solving for Uy, Initial residual = 3.70034e-07, Final residual = 5.74815e-09, No Iterations 6
GAMG:  Solving for p, Initial residual = 3.21594e-06, Final residual = 5.46097e-07, No Iterations 1
time step continuity errors : sum local = 1.72923e-07, global = 4.09458e-17, cumulative = 4.57603e-14
smoothSolver:  Solving for nuTilda, Initial residual = 1.05801e-08, Final residual = 1.2925e-09, No Iterations 2
ExecutionTime = 365.29 s  ClockTime = 366 s

Time = 4994

smoothSolver:  Solving for Ux, Initial residual = 1.2699e-07, Final residual = 4.77873e-09, No Iterations 4
smoothSolver:  Solving for Uy, Initial residual = 5.50939e-07, Final residual = 6.6606e-09, No Iterations 6
GAMG:  Solving for p, Initial residual = 4.13637e-06, Final residual = 7.31787e-07, No Iterations 1
time step continuity errors : sum local = 2.31996e-07, global = -7.89267e-18, cumulative = 4.57524e-14
smoothSolver:  Solving for nuTilda, Initial residual = 1.5421e-08, Final residual = 1.2398e-09, No Iterations 2
ExecutionTime = 365.36 s  ClockTime = 366 s

Time = 4995

smoothSolver:  Solving for Ux, Initial residual = 1.31995e-07, Final residual = 6.91349e-09, No Iterations 4
smoothSolver:  Solving for Uy, Initial residual = 6.29365e-07, Final residual = 8.70838e-09, No Iterations 6
GAMG:  Solving for p, Initial residual = 2.4702e-06, Final residual = 5.60676e-07, No Iterations 1
time step continuity errors : sum local = 1.77576e-07, global = 7.81012e-17, cumulative = 4.58305e-14
smoothSolver:  Solving for nuTilda, Initial residual = 1.0259e-08, Final residual = 1.28979e-09, No Iterations 2
ExecutionTime = 365.42 s  ClockTime = 366 s

forces wings output:
    sum of forces:
        pressure : (1.54765 14.7249 -4.00694e-20)
        viscous  : (0.125663 -0.0130743 -1.96863e-21)
        porous   : (0 0 0)
    sum of moments:
        pressure : (-0.736245 0.0773826 0.249615)
        viscous  : (0.000653717 0.00628314 -4.98447e-05)
        porous   : (0 0 0)

Time = 4996

smoothSolver:  Solving for Ux, Initial residual = 1.09307e-07, Final residual = 4.77637e-09, No Iterations 4
smoothSolver:  Solving for Uy, Initial residual = 4.50329e-07, Final residual = 5.769e-09, No Iterations 6
GAMG:  Solving for p, Initial residual = 3.6227e-06, Final residual = 7.10544e-07, No Iterations 1
time step continuity errors : sum local = 2.2508e-07, global = -1.44509e-16, cumulative = 4.5686e-14
smoothSolver:  Solving for nuTilda, Initial residual = 1.49315e-08, Final residual = 1.23893e-09, No Iterations 2
ExecutionTime = 365.49 s  ClockTime = 366 s

Time = 4997

smoothSolver:  Solving for Ux, Initial residual = 1.1269e-07, Final residual = 5.23028e-09, No Iterations 4
smoothSolver:  Solving for Uy, Initial residual = 4.67694e-07, Final residual = 5.91966e-09, No Iterations 6
GAMG:  Solving for p, Initial residual = 2.97349e-06, Final residual = 7.07543e-07, No Iterations 1
time step continuity errors : sum local = 2.23421e-07, global = -7.7945e-17, cumulative = 4.56081e-14
smoothSolver:  Solving for nuTilda, Initial residual = 1.01572e-08, Final residual = 1.29657e-09, No Iterations 2
ExecutionTime = 365.55 s  ClockTime = 366 s

Time = 4998

smoothSolver:  Solving for Ux, Initial residual = 1.14152e-07, Final residual = 5.47858e-09, No Iterations 4
smoothSolver:  Solving for Uy, Initial residual = 4.08896e-07, Final residual = 6.03866e-09, No Iterations 6
GAMG:  Solving for p, Initial residual = 3.45207e-06, Final residual = 6.71878e-07, No Iterations 1
time step continuity errors : sum local = 2.12232e-07, global = -8.18317e-17, cumulative = 4.55262e-14
smoothSolver:  Solving for nuTilda, Initial residual = 1.48897e-08, Final residual = 1.25257e-09, No Iterations 2
ExecutionTime = 365.62 s  ClockTime = 366 s

Time = 4999

smoothSolver:  Solving for Ux, Initial residual = 1.07007e-07, Final residual = 4.69768e-09, No Iterations 4
smoothSolver:  Solving for Uy, Initial residual = 4.02019e-07, Final residual = 5.23363e-09, No Iterations 6
GAMG:  Solving for p, Initial residual = 3.16788e-06, Final residual = 7.88974e-07, No Iterations 1
time step continuity errors : sum local = 2.5048e-07, global = 8.19491e-17, cumulative = 4.56082e-14
smoothSolver:  Solving for nuTilda, Initial residual = 1.00808e-08, Final residual = 1.26925e-09, No Iterations 2
ExecutionTime = 365.68 s  ClockTime = 366 s

Time = 5000

smoothSolver:  Solving for Ux, Initial residual = 1.3116e-07, Final residual = 6.70473e-09, No Iterations 4
smoothSolver:  Solving for Uy, Initial residual = 5.87951e-07, Final residual = 8.25878e-09, No Iterations 6
GAMG:  Solving for p, Initial residual = 3.32076e-06, Final residual = 6.73584e-07, No Iterations 1
time step continuity errors : sum local = 2.1383e-07, global = 9.37335e-17, cumulative = 4.57019e-14
smoothSolver:  Solving for nuTilda, Initial residual = 1.47103e-08, Final residual = 1.20547e-09, No Iterations 2
ExecutionTime = 365.88 s  ClockTime = 366 s

forces wings output:
    sum of forces:
        pressure : (1.54753 14.7237 -4.00454e-20)
        viscous  : (0.12567 -0.0130711 -1.96586e-21)
        porous   : (0 0 0)
    sum of moments:
        pressure : (-0.736187 0.0773765 0.24979)
        viscous  : (0.000653556 0.0062835 -5.0793e-05)
        porous   : (0 0 0)

End

