/*---------------------------------------------------------------------------*\
| =========                 |                                                 |
| \\      /  F ield         | OpenFOAM: The Open Source CFD Toolbox           |
|  \\    /   O peration     | Version:  2.3.0                                 |
|   \\  /    A nd           | Web:      www.OpenFOAM.org                      |
|    \\/     M anipulation  |                                                 |
\*---------------------------------------------------------------------------*/
Build  : 2.3.0-f5222ca19ce6
Exec   : simpleFoam -case Runs/first_arc_300_-6/case
Date   : Jan 12 2015
Time   : 00:18:03
Host   : "lordvon-XPS-8300"
PID    : 9336
Case   : Runs/first_arc_300_-6/case
nProcs : 1
sigFpe : Enabling floating point exception trapping (FOAM_SIGFPE).
fileModificationChecking : Monitoring run-time modified files using timeStampMaster
allowSystemOperations : Disallowing user-supplied system call operations

// * * * * * * * * * * * * * * * * * * * * * * * * * * * * * * * * * * * * * //
Create time

Create mesh for time = 0

Reading field p

Reading field U

Reading/calculating face flux field phi

Selecting incompressible transport model Newtonian
Selecting RAS turbulence model SpalartAllmaras
SpalartAllmarasCoeffs
{
    sigmaNut        0.66666;
    kappa           0.41;
    Cb1             0.1355;
    Cb2             0.622;
    Cw2             0.3;
    Cw3             2;
    Cv1             7.1;
    Cv2             5;
}

    Employing Ashford correction
No finite volume options present


SIMPLE: convergence criteria
    field p	 tolerance 1e-12
    field U	 tolerance 1e-12
    field nuTilda	 tolerance 1e-12


Starting time loop

forces wings:
    Not including porosity effects

Time = 1

smoothSolver:  Solving for Ux, Initial residual = 1, Final residual = 0.00555967, No Iterations 6
smoothSolver:  Solving for Uy, Initial residual = 1, Final residual = 0.00792425, No Iterations 4
GAMG:  Solving for p, Initial residual = 1, Final residual = 0.00868657, No Iterations 10
time step continuity errors : sum local = 0.00088257, global = 1.64631e-17, cumulative = 1.64631e-17
smoothSolver:  Solving for nuTilda, Initial residual = 1, Final residual = 0.00402197, No Iterations 4
ExecutionTime = 0.38 s  ClockTime = 1 s

Time = 2

smoothSolver:  Solving for Ux, Initial residual = 0.552796, Final residual = 0.00286717, No Iterations 8
smoothSolver:  Solving for Uy, Initial residual = 0.592508, Final residual = 0.00330526, No Iterations 8
GAMG:  Solving for p, Initial residual = 0.754336, Final residual = 0.0056786, No Iterations 6
time step continuity errors : sum local = 0.00122014, global = 1.90952e-17, cumulative = 3.55583e-17
smoothSolver:  Solving for nuTilda, Initial residual = 0.186502, Final residual = 0.000735035, No Iterations 6
ExecutionTime = 0.49 s  ClockTime = 1 s

Time = 3

smoothSolver:  Solving for Ux, Initial residual = 0.200103, Final residual = 0.00101362, No Iterations 8
smoothSolver:  Solving for Uy, Initial residual = 0.188906, Final residual = 0.00103616, No Iterations 8
GAMG:  Solving for p, Initial residual = 0.583706, Final residual = 0.00428857, No Iterations 9
time step continuity errors : sum local = 0.00127025, global = 1.44036e-16, cumulative = 1.79595e-16
smoothSolver:  Solving for nuTilda, Initial residual = 0.0959483, Final residual = 0.000876924, No Iterations 6
ExecutionTime = 0.6 s  ClockTime = 1 s

Time = 4

smoothSolver:  Solving for Ux, Initial residual = 0.0662426, Final residual = 0.000271557, No Iterations 8
smoothSolver:  Solving for Uy, Initial residual = 0.0578472, Final residual = 0.000297525, No Iterations 8
GAMG:  Solving for p, Initial residual = 0.459867, Final residual = 0.00356391, No Iterations 7
time step continuity errors : sum local = 0.00107979, global = 2.44039e-16, cumulative = 4.23633e-16
smoothSolver:  Solving for nuTilda, Initial residual = 0.0728621, Final residual = 0.000214097, No Iterations 8
ExecutionTime = 0.7 s  ClockTime = 1 s

Time = 5

smoothSolver:  Solving for Ux, Initial residual = 0.190458, Final residual = 0.000961948, No Iterations 8
smoothSolver:  Solving for Uy, Initial residual = 0.219429, Final residual = 0.0011801, No Iterations 8
GAMG:  Solving for p, Initial residual = 0.389167, Final residual = 0.00287726, No Iterations 7
time step continuity errors : sum local = 0.000926389, global = 4.19275e-17, cumulative = 4.65561e-16
smoothSolver:  Solving for nuTilda, Initial residual = 0.0598982, Final residual = 0.000195096, No Iterations 8
ExecutionTime = 0.8 s  ClockTime = 1 s

forces wings output:
    sum of forces:
        pressure : (-224.256 761.693 5.2805e-18)
        viscous  : (0.530354 0.0376716 -5.93032e-22)
        porous   : (0 0 0)
    sum of moments:
        pressure : (-38.0847 -11.2128 -72.3646)
        viscous  : (-0.00188358 0.0265177 -0.0457387)
        porous   : (0 0 0)

Time = 6

smoothSolver:  Solving for Ux, Initial residual = 0.153731, Final residual = 0.000741851, No Iterations 8
smoothSolver:  Solving for Uy, Initial residual = 0.192994, Final residual = 0.00103482, No Iterations 8
GAMG:  Solving for p, Initial residual = 0.316146, Final residual = 0.00301008, No Iterations 8
time step continuity errors : sum local = 0.00101241, global = -8.25407e-17, cumulative = 3.8302e-16
smoothSolver:  Solving for nuTilda, Initial residual = 0.0497501, Final residual = 0.000169677, No Iterations 8
ExecutionTime = 0.9 s  ClockTime = 1 s

Time = 7

smoothSolver:  Solving for Ux, Initial residual = 0.107824, Final residual = 0.000464856, No Iterations 8
smoothSolver:  Solving for Uy, Initial residual = 0.142898, Final residual = 0.000737951, No Iterations 8
GAMG:  Solving for p, Initial residual = 0.241577, Final residual = 0.0018678, No Iterations 6
time step continuity errors : sum local = 0.000623416, global = 2.29458e-16, cumulative = 6.12478e-16
smoothSolver:  Solving for nuTilda, Initial residual = 0.0416394, Final residual = 0.000146663, No Iterations 8
ExecutionTime = 0.99 s  ClockTime = 1 s

Time = 8

smoothSolver:  Solving for Ux, Initial residual = 0.124481, Final residual = 0.000605977, No Iterations 8
smoothSolver:  Solving for Uy, Initial residual = 0.147772, Final residual = 0.000775644, No Iterations 8
GAMG:  Solving for p, Initial residual = 0.251864, Final residual = 0.00229876, No Iterations 6
time step continuity errors : sum local = 0.000806503, global = 1.31428e-16, cumulative = 7.43906e-16
smoothSolver:  Solving for nuTilda, Initial residual = 0.035186, Final residual = 0.000126963, No Iterations 8
ExecutionTime = 1.09 s  ClockTime = 1 s

Time = 9

smoothSolver:  Solving for Ux, Initial residual = 0.0513443, Final residual = 0.000227651, No Iterations 8
smoothSolver:  Solving for Uy, Initial residual = 0.041067, Final residual = 0.000208408, No Iterations 8
GAMG:  Solving for p, Initial residual = 0.20384, Final residual = 0.00172191, No Iterations 7
time step continuity errors : sum local = 0.000605874, global = 1.1111e-16, cumulative = 8.55016e-16
smoothSolver:  Solving for nuTilda, Initial residual = 0.0302019, Final residual = 0.000111449, No Iterations 8
ExecutionTime = 1.19 s  ClockTime = 1 s

Time = 10

smoothSolver:  Solving for Ux, Initial residual = 0.0506348, Final residual = 0.000217749, No Iterations 8
smoothSolver:  Solving for Uy, Initial residual = 0.0604872, Final residual = 0.000307276, No Iterations 8
GAMG:  Solving for p, Initial residual = 0.167209, Final residual = 0.00126076, No Iterations 5
time step continuity errors : sum local = 0.000439201, global = 1.18132e-16, cumulative = 9.73148e-16
smoothSolver:  Solving for nuTilda, Initial residual = 0.0263229, Final residual = 9.92924e-05, No Iterations 8
ExecutionTime = 1.28 s  ClockTime = 1 s

forces wings output:
    sum of forces:
        pressure : (-134.106 480.208 2.81298e-18)
        viscous  : (0.496796 0.0632599 3.13804e-21)
        porous   : (0 0 0)
    sum of moments:
        pressure : (-24.0104 -6.70529 -32.3098)
        viscous  : (-0.00316299 0.0248398 -0.0470638)
        porous   : (0 0 0)

Time = 11

smoothSolver:  Solving for Ux, Initial residual = 0.0648121, Final residual = 0.000301419, No Iterations 8
smoothSolver:  Solving for Uy, Initial residual = 0.0855248, Final residual = 0.000439875, No Iterations 8
GAMG:  Solving for p, Initial residual = 0.169778, Final residual = 0.00164082, No Iterations 6
time step continuity errors : sum local = 0.000583244, global = 1.16605e-16, cumulative = 1.08975e-15
smoothSolver:  Solving for nuTilda, Initial residual = 0.0232291, Final residual = 8.94688e-05, No Iterations 8
ExecutionTime = 1.38 s  ClockTime = 2 s

Time = 12

smoothSolver:  Solving for Ux, Initial residual = 0.0305164, Final residual = 0.00011786, No Iterations 8
smoothSolver:  Solving for Uy, Initial residual = 0.0243923, Final residual = 0.000113023, No Iterations 8
GAMG:  Solving for p, Initial residual = 0.132514, Final residual = 0.000933146, No Iterations 7
time step continuity errors : sum local = 0.000324045, global = 3.53272e-16, cumulative = 1.44302e-15
smoothSolver:  Solving for nuTilda, Initial residual = 0.0207152, Final residual = 8.1218e-05, No Iterations 8
ExecutionTime = 1.48 s  ClockTime = 2 s

Time = 13

smoothSolver:  Solving for Ux, Initial residual = 0.0416806, Final residual = 0.000177925, No Iterations 8
smoothSolver:  Solving for Uy, Initial residual = 0.0540309, Final residual = 0.000269701, No Iterations 8
GAMG:  Solving for p, Initial residual = 0.113294, Final residual = 0.00094123, No Iterations 5
time step continuity errors : sum local = 0.000324321, global = 5.32826e-17, cumulative = 1.49631e-15
smoothSolver:  Solving for nuTilda, Initial residual = 0.0185097, Final residual = 7.38789e-05, No Iterations 8
ExecutionTime = 1.57 s  ClockTime = 2 s

Time = 14

smoothSolver:  Solving for Ux, Initial residual = 0.0378037, Final residual = 0.000170711, No Iterations 8
smoothSolver:  Solving for Uy, Initial residual = 0.0413774, Final residual = 0.00020803, No Iterations 8
GAMG:  Solving for p, Initial residual = 0.115031, Final residual = 0.000688996, No Iterations 6
time step continuity errors : sum local = 0.000240666, global = 4.27858e-16, cumulative = 1.92417e-15
smoothSolver:  Solving for nuTilda, Initial residual = 0.0166076, Final residual = 6.761e-05, No Iterations 8
ExecutionTime = 1.67 s  ClockTime = 2 s

Time = 15

smoothSolver:  Solving for Ux, Initial residual = 0.0186666, Final residual = 7.478e-05, No Iterations 8
smoothSolver:  Solving for Uy, Initial residual = 0.0118389, Final residual = 5.3672e-05, No Iterations 8
GAMG:  Solving for p, Initial residual = 0.0897349, Final residual = 0.000789164, No Iterations 6
time step continuity errors : sum local = 0.000275356, global = -1.54466e-17, cumulative = 1.90872e-15
smoothSolver:  Solving for nuTilda, Initial residual = 0.0149684, Final residual = 6.24116e-05, No Iterations 8
ExecutionTime = 1.77 s  ClockTime = 2 s

forces wings output:
    sum of forces:
        pressure : (-43.5656 167.401 -3.59514e-19)
        viscous  : (0.482604 0.0593305 1.33398e-20)
        porous   : (0 0 0)
    sum of moments:
        pressure : (-8.37005 -2.17828 -5.4378)
        viscous  : (-0.00296652 0.0241302 -0.0446634)
        porous   : (0 0 0)

Time = 16

smoothSolver:  Solving for Ux, Initial residual = 0.0223901, Final residual = 9.5218e-05, No Iterations 8
smoothSolver:  Solving for Uy, Initial residual = 0.0301048, Final residual = 0.000148572, No Iterations 8
GAMG:  Solving for p, Initial residual = 0.0815944, Final residual = 0.000483391, No Iterations 6
time step continuity errors : sum local = 0.000165195, global = 1.61257e-16, cumulative = 2.06998e-15
smoothSolver:  Solving for nuTilda, Initial residual = 0.0135917, Final residual = 5.81702e-05, No Iterations 8
ExecutionTime = 1.87 s  ClockTime = 2 s

Time = 17

smoothSolver:  Solving for Ux, Initial residual = 0.018023, Final residual = 7.63966e-05, No Iterations 8
smoothSolver:  Solving for Uy, Initial residual = 0.0239354, Final residual = 0.000117742, No Iterations 8
GAMG:  Solving for p, Initial residual = 0.0773703, Final residual = 0.000388492, No Iterations 6
time step continuity errors : sum local = 0.000135239, global = 1.04664e-16, cumulative = 2.17464e-15
smoothSolver:  Solving for nuTilda, Initial residual = 0.0124649, Final residual = 5.4574e-05, No Iterations 8
ExecutionTime = 1.96 s  ClockTime = 2 s

Time = 18

smoothSolver:  Solving for Ux, Initial residual = 0.0116737, Final residual = 4.15588e-05, No Iterations 8
smoothSolver:  Solving for Uy, Initial residual = 0.0132089, Final residual = 6.09387e-05, No Iterations 8
GAMG:  Solving for p, Initial residual = 0.0590854, Final residual = 0.000385516, No Iterations 6
time step continuity errors : sum local = 0.000132355, global = 2.51332e-16, cumulative = 2.42597e-15
smoothSolver:  Solving for nuTilda, Initial residual = 0.0114978, Final residual = 5.12976e-05, No Iterations 8
ExecutionTime = 2.06 s  ClockTime = 2 s

Time = 19

smoothSolver:  Solving for Ux, Initial residual = 0.0163157, Final residual = 6.7923e-05, No Iterations 8
smoothSolver:  Solving for Uy, Initial residual = 0.0197244, Final residual = 9.47387e-05, No Iterations 8
GAMG:  Solving for p, Initial residual = 0.0567736, Final residual = 0.00032329, No Iterations 6
time step continuity errors : sum local = 0.000110687, global = 3.18343e-16, cumulative = 2.74431e-15
smoothSolver:  Solving for nuTilda, Initial residual = 0.0106605, Final residual = 4.82849e-05, No Iterations 8
ExecutionTime = 2.15 s  ClockTime = 2 s

Time = 20

smoothSolver:  Solving for Ux, Initial residual = 0.0128666, Final residual = 5.40682e-05, No Iterations 8
smoothSolver:  Solving for Uy, Initial residual = 0.0108441, Final residual = 5.16802e-05, No Iterations 8
GAMG:  Solving for p, Initial residual = 0.0518349, Final residual = 0.000249587, No Iterations 6
time step continuity errors : sum local = 8.52132e-05, global = 9.10347e-17, cumulative = 2.83535e-15
smoothSolver:  Solving for nuTilda, Initial residual = 0.00991052, Final residual = 4.55214e-05, No Iterations 8
ExecutionTime = 2.26 s  ClockTime = 2 s

forces wings output:
    sum of forces:
        pressure : (-5.59849 29.299 -8.04204e-19)
        viscous  : (0.469461 0.0512669 1.09698e-20)
        porous   : (0 0 0)
    sum of moments:
        pressure : (-1.46495 -0.279924 2.75602)
        viscous  : (-0.00256334 0.0234731 -0.0423998)
        porous   : (0 0 0)

Time = 21

smoothSolver:  Solving for Ux, Initial residual = 0.00962315, Final residual = 3.89057e-05, No Iterations 8
smoothSolver:  Solving for Uy, Initial residual = 0.00889848, Final residual = 4.05139e-05, No Iterations 8
GAMG:  Solving for p, Initial residual = 0.0397266, Final residual = 0.000335302, No Iterations 5
time step continuity errors : sum local = 0.000115711, global = 1.01687e-16, cumulative = 2.93704e-15
smoothSolver:  Solving for nuTilda, Initial residual = 0.0092845, Final residual = 4.30623e-05, No Iterations 8
ExecutionTime = 2.35 s  ClockTime = 2 s

Time = 22

smoothSolver:  Solving for Ux, Initial residual = 0.00885245, Final residual = 3.6003e-05, No Iterations 8
smoothSolver:  Solving for Uy, Initial residual = 0.0124549, Final residual = 5.84096e-05, No Iterations 8
GAMG:  Solving for p, Initial residual = 0.0396349, Final residual = 0.000363265, No Iterations 5
time step continuity errors : sum local = 0.000124268, global = 9.96651e-17, cumulative = 3.0367e-15
smoothSolver:  Solving for nuTilda, Initial residual = 0.00875127, Final residual = 4.08406e-05, No Iterations 8
ExecutionTime = 2.44 s  ClockTime = 3 s

Time = 23

smoothSolver:  Solving for Ux, Initial residual = 0.00574644, Final residual = 2.05916e-05, No Iterations 8
smoothSolver:  Solving for Uy, Initial residual = 0.00671589, Final residual = 3.04762e-05, No Iterations 8
GAMG:  Solving for p, Initial residual = 0.0363448, Final residual = 0.000303853, No Iterations 5
time step continuity errors : sum local = 0.000102733, global = 2.03668e-17, cumulative = 3.05707e-15
smoothSolver:  Solving for nuTilda, Initial residual = 0.00828382, Final residual = 3.88195e-05, No Iterations 8
ExecutionTime = 2.53 s  ClockTime = 3 s

Time = 24

smoothSolver:  Solving for Ux, Initial residual = 0.00652651, Final residual = 2.36705e-05, No Iterations 8
smoothSolver:  Solving for Uy, Initial residual = 0.00769763, Final residual = 3.53966e-05, No Iterations 8
GAMG:  Solving for p, Initial residual = 0.028908, Final residual = 0.000243684, No Iterations 5
time step continuity errors : sum local = 8.35855e-05, global = 2.75006e-16, cumulative = 3.33207e-15
smoothSolver:  Solving for nuTilda, Initial residual = 0.00784477, Final residual = 3.68997e-05, No Iterations 8
ExecutionTime = 2.62 s  ClockTime = 3 s

Time = 25

smoothSolver:  Solving for Ux, Initial residual = 0.00740198, Final residual = 3.00148e-05, No Iterations 8
smoothSolver:  Solving for Uy, Initial residual = 0.00717805, Final residual = 3.34774e-05, No Iterations 8
GAMG:  Solving for p, Initial residual = 0.0269233, Final residual = 0.000229082, No Iterations 5
time step continuity errors : sum local = 7.78816e-05, global = 8.08546e-17, cumulative = 3.41293e-15
smoothSolver:  Solving for nuTilda, Initial residual = 0.00742629, Final residual = 3.5092e-05, No Iterations 8
ExecutionTime = 2.7 s  ClockTime = 3 s

forces wings output:
    sum of forces:
        pressure : (4.07829 -6.72522 -7.50207e-19)
        viscous  : (0.455251 0.0459825 8.46778e-21)
        porous   : (0 0 0)
    sum of moments:
        pressure : (0.336261 0.203914 4.47799)
        viscous  : (-0.00229912 0.0227626 -0.040701)
        porous   : (0 0 0)

Time = 26

smoothSolver:  Solving for Ux, Initial residual = 0.00610344, Final residual = 2.51179e-05, No Iterations 8
smoothSolver:  Solving for Uy, Initial residual = 0.00343717, Final residual = 1.57074e-05, No Iterations 8
GAMG:  Solving for p, Initial residual = 0.0240291, Final residual = 0.00015783, No Iterations 5
time step continuity errors : sum local = 5.3483e-05, global = 2.53224e-16, cumulative = 3.66615e-15
smoothSolver:  Solving for nuTilda, Initial residual = 0.00703598, Final residual = 3.33932e-05, No Iterations 8
ExecutionTime = 2.8 s  ClockTime = 3 s

Time = 27

smoothSolver:  Solving for Ux, Initial residual = 0.00524548, Final residual = 2.14844e-05, No Iterations 8
smoothSolver:  Solving for Uy, Initial residual = 0.00488035, Final residual = 2.25298e-05, No Iterations 8
GAMG:  Solving for p, Initial residual = 0.0195728, Final residual = 0.000189353, No Iterations 5
time step continuity errors : sum local = 6.47234e-05, global = 1.02771e-18, cumulative = 3.66718e-15
smoothSolver:  Solving for nuTilda, Initial residual = 0.00669105, Final residual = 3.18675e-05, No Iterations 8
ExecutionTime = 2.89 s  ClockTime = 3 s

Time = 28

smoothSolver:  Solving for Ux, Initial residual = 0.00424356, Final residual = 1.63756e-05, No Iterations 8
smoothSolver:  Solving for Uy, Initial residual = 0.00478003, Final residual = 2.23021e-05, No Iterations 8
GAMG:  Solving for p, Initial residual = 0.0178235, Final residual = 0.000155077, No Iterations 5
time step continuity errors : sum local = 5.25242e-05, global = 1.924e-16, cumulative = 3.85958e-15
smoothSolver:  Solving for nuTilda, Initial residual = 0.00638365, Final residual = 3.04447e-05, No Iterations 8
ExecutionTime = 2.97 s  ClockTime = 3 s

Time = 29

smoothSolver:  Solving for Ux, Initial residual = 0.00378766, Final residual = 1.33929e-05, No Iterations 8
smoothSolver:  Solving for Uy, Initial residual = 0.00337047, Final residual = 1.52141e-05, No Iterations 8
GAMG:  Solving for p, Initial residual = 0.016233, Final residual = 9.52213e-05, No Iterations 5
time step continuity errors : sum local = 3.21607e-05, global = 3.33618e-16, cumulative = 4.1932e-15
smoothSolver:  Solving for nuTilda, Initial residual = 0.0061123, Final residual = 2.91686e-05, No Iterations 8
ExecutionTime = 3.06 s  ClockTime = 3 s

Time = 30

smoothSolver:  Solving for Ux, Initial residual = 0.00448538, Final residual = 1.66874e-05, No Iterations 8
smoothSolver:  Solving for Uy, Initial residual = 0.00391317, Final residual = 1.7885e-05, No Iterations 8
GAMG:  Solving for p, Initial residual = 0.0140057, Final residual = 0.000129726, No Iterations 5
time step continuity errors : sum local = 4.3865e-05, global = 3.97852e-16, cumulative = 4.59105e-15
smoothSolver:  Solving for nuTilda, Initial residual = 0.0058479, Final residual = 2.79042e-05, No Iterations 8
ExecutionTime = 3.15 s  ClockTime = 3 s

forces wings output:
    sum of forces:
        pressure : (3.88663 -5.27211 -5.37176e-19)
        viscous  : (0.440859 0.0429869 6.57572e-21)
        porous   : (0 0 0)
    sum of moments:
        pressure : (0.263606 0.194331 4.77204)
        viscous  : (-0.00214934 0.022043 -0.03933)
        porous   : (0 0 0)

Time = 31

smoothSolver:  Solving for Ux, Initial residual = 0.00471856, Final residual = 1.85834e-05, No Iterations 8
smoothSolver:  Solving for Uy, Initial residual = 0.00294261, Final residual = 1.35341e-05, No Iterations 8
GAMG:  Solving for p, Initial residual = 0.0122246, Final residual = 9.09468e-05, No Iterations 5
time step continuity errors : sum local = 3.07222e-05, global = 2.78765e-16, cumulative = 4.86981e-15
smoothSolver:  Solving for nuTilda, Initial residual = 0.00560999, Final residual = 2.67712e-05, No Iterations 8
ExecutionTime = 3.24 s  ClockTime = 3 s

Time = 32

smoothSolver:  Solving for Ux, Initial residual = 0.00437768, Final residual = 1.76299e-05, No Iterations 8
smoothSolver:  Solving for Uy, Initial residual = 0.00236626, Final residual = 1.07433e-05, No Iterations 8
GAMG:  Solving for p, Initial residual = 0.0108488, Final residual = 0.000104619, No Iterations 4
time step continuity errors : sum local = 3.5279e-05, global = 5.93476e-18, cumulative = 4.87575e-15
smoothSolver:  Solving for nuTilda, Initial residual = 0.00536981, Final residual = 2.5649e-05, No Iterations 8
ExecutionTime = 3.32 s  ClockTime = 3 s

Time = 33

smoothSolver:  Solving for Ux, Initial residual = 0.00384909, Final residual = 1.53856e-05, No Iterations 8
smoothSolver:  Solving for Uy, Initial residual = 0.00269087, Final residual = 1.23913e-05, No Iterations 8
GAMG:  Solving for p, Initial residual = 0.00983782, Final residual = 9.24352e-05, No Iterations 5
time step continuity errors : sum local = 3.11833e-05, global = 4.7357e-16, cumulative = 5.34932e-15
smoothSolver:  Solving for nuTilda, Initial residual = 0.00515297, Final residual = 2.46846e-05, No Iterations 8
ExecutionTime = 3.41 s  ClockTime = 4 s

Time = 34

smoothSolver:  Solving for Ux, Initial residual = 0.00343288, Final residual = 1.3312e-05, No Iterations 8
smoothSolver:  Solving for Uy, Initial residual = 0.00227689, Final residual = 1.08061e-05, No Iterations 8
GAMG:  Solving for p, Initial residual = 0.00857579, Final residual = 6.38145e-05, No Iterations 5
time step continuity errors : sum local = 2.1536e-05, global = 1.91552e-16, cumulative = 5.54087e-15
smoothSolver:  Solving for nuTilda, Initial residual = 0.00494008, Final residual = 2.37001e-05, No Iterations 8
ExecutionTime = 3.5 s  ClockTime = 4 s

Time = 35

smoothSolver:  Solving for Ux, Initial residual = 0.00331077, Final residual = 1.26859e-05, No Iterations 8
smoothSolver:  Solving for Uy, Initial residual = 0.00221346, Final residual = 1.04191e-05, No Iterations 8
GAMG:  Solving for p, Initial residual = 0.00760327, Final residual = 6.67645e-05, No Iterations 4
time step continuity errors : sum local = 2.25489e-05, global = 3.0555e-16, cumulative = 5.84642e-15
smoothSolver:  Solving for nuTilda, Initial residual = 0.00475754, Final residual = 2.28568e-05, No Iterations 8
ExecutionTime = 3.59 s  ClockTime = 4 s

forces wings output:
    sum of forces:
        pressure : (2.52037 0.322372 -4.75486e-19)
        viscous  : (0.425823 0.0409832 6.76665e-21)
        porous   : (0 0 0)
    sum of moments:
        pressure : (-0.0161186 0.126019 4.75442)
        viscous  : (-0.00204916 0.0212912 -0.0379988)
        porous   : (0 0 0)

Time = 36

smoothSolver:  Solving for Ux, Initial residual = 0.00347822, Final residual = 1.36589e-05, No Iterations 8
smoothSolver:  Solving for Uy, Initial residual = 0.00207911, Final residual = 9.87389e-06, No Iterations 8
GAMG:  Solving for p, Initial residual = 0.00706307, Final residual = 4.6033e-05, No Iterations 5
time step continuity errors : sum local = 1.55026e-05, global = 1.29176e-16, cumulative = 5.9756e-15
smoothSolver:  Solving for nuTilda, Initial residual = 0.00457237, Final residual = 2.19778e-05, No Iterations 8
ExecutionTime = 3.68 s  ClockTime = 4 s

Time = 37

smoothSolver:  Solving for Ux, Initial residual = 0.00353319, Final residual = 1.42761e-05, No Iterations 8
smoothSolver:  Solving for Uy, Initial residual = 0.00159579, Final residual = 7.77528e-06, No Iterations 8
GAMG:  Solving for p, Initial residual = 0.00610238, Final residual = 3.54162e-05, No Iterations 5
time step continuity errors : sum local = 1.19584e-05, global = 4.89079e-16, cumulative = 6.46468e-15
smoothSolver:  Solving for nuTilda, Initial residual = 0.00440882, Final residual = 2.12168e-05, No Iterations 8
ExecutionTime = 3.77 s  ClockTime = 4 s

Time = 38

smoothSolver:  Solving for Ux, Initial residual = 0.00340553, Final residual = 1.39747e-05, No Iterations 8
smoothSolver:  Solving for Uy, Initial residual = 0.00164988, Final residual = 7.98865e-06, No Iterations 8
GAMG:  Solving for p, Initial residual = 0.00542913, Final residual = 5.08028e-05, No Iterations 4
time step continuity errors : sum local = 1.70674e-05, global = 3.46565e-16, cumulative = 6.81124e-15
smoothSolver:  Solving for nuTilda, Initial residual = 0.00424641, Final residual = 2.04365e-05, No Iterations 8
ExecutionTime = 3.86 s  ClockTime = 4 s

Time = 39

smoothSolver:  Solving for Ux, Initial residual = 0.00320362, Final residual = 1.3078e-05, No Iterations 8
smoothSolver:  Solving for Uy, Initial residual = 0.00166359, Final residual = 8.09275e-06, No Iterations 8
GAMG:  Solving for p, Initial residual = 0.00511378, Final residual = 4.40185e-05, No Iterations 5
time step continuity errors : sum local = 1.48063e-05, global = 4.33253e-16, cumulative = 7.24449e-15
smoothSolver:  Solving for nuTilda, Initial residual = 0.00410123, Final residual = 1.9757e-05, No Iterations 8
ExecutionTime = 3.95 s  ClockTime = 4 s

Time = 40

smoothSolver:  Solving for Ux, Initial residual = 0.0030479, Final residual = 1.22796e-05, No Iterations 8
smoothSolver:  Solving for Uy, Initial residual = 0.00157335, Final residual = 7.76768e-06, No Iterations 8
GAMG:  Solving for p, Initial residual = 0.00444073, Final residual = 2.64972e-05, No Iterations 5
time step continuity errors : sum local = 8.91942e-06, global = 4.40151e-16, cumulative = 7.68465e-15
smoothSolver:  Solving for nuTilda, Initial residual = 0.00395827, Final residual = 1.90646e-05, No Iterations 8
ExecutionTime = 4.04 s  ClockTime = 4 s

forces wings output:
    sum of forces:
        pressure : (1.91419 2.46406 -4.91296e-19)
        viscous  : (0.41218 0.0393159 7.45499e-21)
        porous   : (0 0 0)
    sum of moments:
        pressure : (-0.123203 0.0957094 4.59553)
        viscous  : (-0.00196579 0.020609 -0.0368373)
        porous   : (0 0 0)

Time = 41

smoothSolver:  Solving for Ux, Initial residual = 0.00300138, Final residual = 1.20595e-05, No Iterations 8
smoothSolver:  Solving for Uy, Initial residual = 0.0015872, Final residual = 7.87622e-06, No Iterations 8
GAMG:  Solving for p, Initial residual = 0.00406048, Final residual = 1.80789e-05, No Iterations 5
time step continuity errors : sum local = 6.05941e-06, global = -3.43457e-17, cumulative = 7.6503e-15
smoothSolver:  Solving for nuTilda, Initial residual = 0.00382783, Final residual = 1.84538e-05, No Iterations 8
ExecutionTime = 4.13 s  ClockTime = 4 s

Time = 42

smoothSolver:  Solving for Ux, Initial residual = 0.00301596, Final residual = 1.22363e-05, No Iterations 8
smoothSolver:  Solving for Uy, Initial residual = 0.00144486, Final residual = 7.24083e-06, No Iterations 8
GAMG:  Solving for p, Initial residual = 0.00377286, Final residual = 1.93714e-05, No Iterations 5
time step continuity errors : sum local = 6.488e-06, global = 9.33551e-17, cumulative = 7.74366e-15
smoothSolver:  Solving for nuTilda, Initial residual = 0.00370088, Final residual = 1.78431e-05, No Iterations 8
ExecutionTime = 4.23 s  ClockTime = 4 s

Time = 43

smoothSolver:  Solving for Ux, Initial residual = 0.00299475, Final residual = 1.22835e-05, No Iterations 8
smoothSolver:  Solving for Uy, Initial residual = 0.0013595, Final residual = 6.86671e-06, No Iterations 8
GAMG:  Solving for p, Initial residual = 0.00334245, Final residual = 2.83967e-05, No Iterations 4
time step continuity errors : sum local = 9.50513e-06, global = 2.85361e-16, cumulative = 8.02902e-15
smoothSolver:  Solving for nuTilda, Initial residual = 0.00358481, Final residual = 1.72858e-05, No Iterations 8
ExecutionTime = 4.31 s  ClockTime = 4 s

Time = 44

smoothSolver:  Solving for Ux, Initial residual = 0.00291277, Final residual = 1.20362e-05, No Iterations 8
smoothSolver:  Solving for Uy, Initial residual = 0.00136495, Final residual = 6.89235e-06, No Iterations 8
GAMG:  Solving for p, Initial residual = 0.00308716, Final residual = 1.48749e-05, No Iterations 5
time step continuity errors : sum local = 4.97946e-06, global = 1.87319e-16, cumulative = 8.21634e-15
smoothSolver:  Solving for nuTilda, Initial residual = 0.00347108, Final residual = 1.67313e-05, No Iterations 8
ExecutionTime = 4.4 s  ClockTime = 5 s

Time = 45

smoothSolver:  Solving for Ux, Initial residual = 0.00281252, Final residual = 1.1629e-05, No Iterations 8
smoothSolver:  Solving for Uy, Initial residual = 0.00135689, Final residual = 6.86882e-06, No Iterations 8
GAMG:  Solving for p, Initial residual = 0.002877, Final residual = 1.65041e-05, No Iterations 5
time step continuity errors : sum local = 5.52609e-06, global = 2.01296e-16, cumulative = 8.41763e-15
smoothSolver:  Solving for nuTilda, Initial residual = 0.00336509, Final residual = 1.62137e-05, No Iterations 8
ExecutionTime = 4.49 s  ClockTime = 5 s

forces wings output:
    sum of forces:
        pressure : (1.91434 2.14758 -5.06354e-19)
        viscous  : (0.39806 0.0376663 8.06966e-21)
        porous   : (0 0 0)
    sum of moments:
        pressure : (-0.107379 0.0957171 4.4554)
        viscous  : (-0.00188331 0.019903 -0.0356223)
        porous   : (0 0 0)

Time = 46

smoothSolver:  Solving for Ux, Initial residual = 0.00273693, Final residual = 1.13084e-05, No Iterations 8
smoothSolver:  Solving for Uy, Initial residual = 0.00136492, Final residual = 6.92878e-06, No Iterations 8
GAMG:  Solving for p, Initial residual = 0.00265273, Final residual = 2.48372e-05, No Iterations 4
time step continuity errors : sum local = 8.30541e-06, global = 9.78307e-17, cumulative = 8.51546e-15
smoothSolver:  Solving for nuTilda, Initial residual = 0.00326225, Final residual = 1.57073e-05, No Iterations 8
ExecutionTime = 4.59 s  ClockTime = 5 s

Time = 47

smoothSolver:  Solving for Ux, Initial residual = 0.0026987, Final residual = 1.11769e-05, No Iterations 8
smoothSolver:  Solving for Uy, Initial residual = 0.00134179, Final residual = 6.85445e-06, No Iterations 8
GAMG:  Solving for p, Initial residual = 0.00248365, Final residual = 1.41952e-05, No Iterations 5
time step continuity errors : sum local = 4.7703e-06, global = 1.43716e-16, cumulative = 8.65918e-15
smoothSolver:  Solving for nuTilda, Initial residual = 0.00316517, Final residual = 1.52296e-05, No Iterations 8
ExecutionTime = 4.68 s  ClockTime = 5 s

Time = 48

smoothSolver:  Solving for Ux, Initial residual = 0.00267594, Final residual = 1.11416e-05, No Iterations 8
smoothSolver:  Solving for Uy, Initial residual = 0.00131009, Final residual = 6.70134e-06, No Iterations 8
GAMG:  Solving for p, Initial residual = 0.00228735, Final residual = 1.96936e-05, No Iterations 4
time step continuity errors : sum local = 6.53372e-06, global = 1.78957e-16, cumulative = 8.83814e-15
smoothSolver:  Solving for nuTilda, Initial residual = 0.00307193, Final residual = 1.47678e-05, No Iterations 8
ExecutionTime = 4.76 s  ClockTime = 5 s

Time = 49

smoothSolver:  Solving for Ux, Initial residual = 0.00264157, Final residual = 1.10511e-05, No Iterations 8
smoothSolver:  Solving for Uy, Initial residual = 0.00129071, Final residual = 6.5741e-06, No Iterations 8
GAMG:  Solving for p, Initial residual = 0.00212227, Final residual = 1.30562e-05, No Iterations 4
time step continuity errors : sum local = 4.37401e-06, global = 3.85758e-16, cumulative = 9.22389e-15
smoothSolver:  Solving for nuTilda, Initial residual = 0.002983, Final residual = 1.4331e-05, No Iterations 8
ExecutionTime = 4.85 s  ClockTime = 5 s

Time = 50

smoothSolver:  Solving for Ux, Initial residual = 0.00258844, Final residual = 1.08559e-05, No Iterations 8
smoothSolver:  Solving for Uy, Initial residual = 0.00128204, Final residual = 6.52958e-06, No Iterations 8
GAMG:  Solving for p, Initial residual = 0.0020115, Final residual = 1.81535e-05, No Iterations 4
time step continuity errors : sum local = 6.06966e-06, global = 2.59806e-16, cumulative = 9.4837e-15
smoothSolver:  Solving for nuTilda, Initial residual = 0.00289781, Final residual = 1.39134e-05, No Iterations 8
ExecutionTime = 4.94 s  ClockTime = 5 s

forces wings output:
    sum of forces:
        pressure : (1.98391 1.84831 -5.03803e-19)
        viscous  : (0.385138 0.0360912 8.5121e-21)
        porous   : (0 0 0)
    sum of moments:
        pressure : (-0.0924153 0.0991956 4.44991)
        viscous  : (-0.00180456 0.0192569 -0.0345141)
        porous   : (0 0 0)

Time = 51

smoothSolver:  Solving for Ux, Initial residual = 0.00253368, Final residual = 1.06272e-05, No Iterations 8
smoothSolver:  Solving for Uy, Initial residual = 0.00128338, Final residual = 6.52531e-06, No Iterations 8
GAMG:  Solving for p, Initial residual = 0.00189412, Final residual = 1.75461e-05, No Iterations 4
time step continuity errors : sum local = 5.85498e-06, global = 3.54192e-16, cumulative = 9.83789e-15
smoothSolver:  Solving for nuTilda, Initial residual = 0.00281616, Final residual = 1.35137e-05, No Iterations 8
ExecutionTime = 5.03 s  ClockTime = 5 s

Time = 52

smoothSolver:  Solving for Ux, Initial residual = 0.00249072, Final residual = 1.04492e-05, No Iterations 8
smoothSolver:  Solving for Uy, Initial residual = 0.00127906, Final residual = 6.52007e-06, No Iterations 8
GAMG:  Solving for p, Initial residual = 0.00177837, Final residual = 1.50112e-05, No Iterations 4
time step continuity errors : sum local = 5.00734e-06, global = 1.01755e-16, cumulative = 9.93965e-15
smoothSolver:  Solving for nuTilda, Initial residual = 0.00273793, Final residual = 1.31311e-05, No Iterations 8
ExecutionTime = 5.12 s  ClockTime = 5 s

Time = 53

smoothSolver:  Solving for Ux, Initial residual = 0.00245905, Final residual = 1.03337e-05, No Iterations 8
smoothSolver:  Solving for Uy, Initial residual = 0.00126638, Final residual = 6.47351e-06, No Iterations 8
GAMG:  Solving for p, Initial residual = 0.00171914, Final residual = 1.6191e-05, No Iterations 4
time step continuity errors : sum local = 5.41108e-06, global = 3.9504e-16, cumulative = 1.03347e-14
smoothSolver:  Solving for nuTilda, Initial residual = 0.00266299, Final residual = 1.27638e-05, No Iterations 8
ExecutionTime = 5.21 s  ClockTime = 5 s

Time = 54

smoothSolver:  Solving for Ux, Initial residual = 0.00242962, Final residual = 1.02408e-05, No Iterations 8
smoothSolver:  Solving for Uy, Initial residual = 0.00125541, Final residual = 6.40599e-06, No Iterations 8
GAMG:  Solving for p, Initial residual = 0.00163287, Final residual = 1.40908e-05, No Iterations 4
time step continuity errors : sum local = 4.70859e-06, global = 8.78535e-17, cumulative = 1.04225e-14
smoothSolver:  Solving for nuTilda, Initial residual = 0.00259134, Final residual = 1.24124e-05, No Iterations 8
ExecutionTime = 5.3 s  ClockTime = 5 s

Time = 55

smoothSolver:  Solving for Ux, Initial residual = 0.00239672, Final residual = 1.01306e-05, No Iterations 8
smoothSolver:  Solving for Uy, Initial residual = 0.00124755, Final residual = 6.34146e-06, No Iterations 8
GAMG:  Solving for p, Initial residual = 0.00154764, Final residual = 1.15033e-05, No Iterations 4
time step continuity errors : sum local = 3.83609e-06, global = 7.32504e-17, cumulative = 1.04958e-14
smoothSolver:  Solving for nuTilda, Initial residual = 0.00252255, Final residual = 1.20741e-05, No Iterations 8
ExecutionTime = 5.38 s  ClockTime = 6 s

forces wings output:
    sum of forces:
        pressure : (2.01751 1.83076 -4.88327e-19)
        viscous  : (0.372575 0.0345716 8.89767e-21)
        porous   : (0 0 0)
    sum of moments:
        pressure : (-0.0915379 0.100875 4.50358)
        viscous  : (-0.00172858 0.0186288 -0.033429)
        porous   : (0 0 0)

Time = 56

smoothSolver:  Solving for Ux, Initial residual = 0.00236104, Final residual = 9.99558e-06, No Iterations 8
smoothSolver:  Solving for Uy, Initial residual = 0.00124148, Final residual = 6.29574e-06, No Iterations 8
GAMG:  Solving for p, Initial residual = 0.0014864, Final residual = 1.0694e-05, No Iterations 4
time step continuity errors : sum local = 3.56875e-06, global = 1.78103e-16, cumulative = 1.06739e-14
smoothSolver:  Solving for nuTilda, Initial residual = 0.00245678, Final residual = 1.17503e-05, No Iterations 8
ExecutionTime = 5.48 s  ClockTime = 6 s

Time = 57

smoothSolver:  Solving for Ux, Initial residual = 0.00232744, Final residual = 9.85731e-06, No Iterations 8
smoothSolver:  Solving for Uy, Initial residual = 0.00123551, Final residual = 6.25877e-06, No Iterations 8
GAMG:  Solving for p, Initial residual = 0.00142284, Final residual = 1.26605e-05, No Iterations 4
time step continuity errors : sum local = 4.22468e-06, global = 2.28683e-16, cumulative = 1.09026e-14
smoothSolver:  Solving for nuTilda, Initial residual = 0.0023935, Final residual = 1.1438e-05, No Iterations 8
ExecutionTime = 5.57 s  ClockTime = 6 s

Time = 58

smoothSolver:  Solving for Ux, Initial residual = 0.0022976, Final residual = 9.72948e-06, No Iterations 8
smoothSolver:  Solving for Uy, Initial residual = 0.00123001, Final residual = 6.21298e-06, No Iterations 8
GAMG:  Solving for p, Initial residual = 0.00136322, Final residual = 1.21454e-05, No Iterations 4
time step continuity errors : sum local = 4.0497e-06, global = 2.58433e-16, cumulative = 1.1161e-14
smoothSolver:  Solving for nuTilda, Initial residual = 0.00233293, Final residual = 1.11381e-05, No Iterations 8
ExecutionTime = 5.66 s  ClockTime = 6 s

Time = 59

smoothSolver:  Solving for Ux, Initial residual = 0.00227159, Final residual = 9.62059e-06, No Iterations 8
smoothSolver:  Solving for Uy, Initial residual = 0.0012222, Final residual = 6.15104e-06, No Iterations 8
GAMG:  Solving for p, Initial residual = 0.00130635, Final residual = 7.25055e-06, No Iterations 5
time step continuity errors : sum local = 2.41582e-06, global = 2.40985e-16, cumulative = 1.1402e-14
smoothSolver:  Solving for nuTilda, Initial residual = 0.00227468, Final residual = 1.08483e-05, No Iterations 8
ExecutionTime = 5.75 s  ClockTime = 6 s

Time = 60

smoothSolver:  Solving for Ux, Initial residual = 0.00224602, Final residual = 9.51764e-06, No Iterations 8
smoothSolver:  Solving for Uy, Initial residual = 0.00121363, Final residual = 6.09191e-06, No Iterations 8
GAMG:  Solving for p, Initial residual = 0.00125707, Final residual = 1.24687e-05, No Iterations 4
time step continuity errors : sum local = 4.15853e-06, global = 1.94624e-16, cumulative = 1.15966e-14
smoothSolver:  Solving for nuTilda, Initial residual = 0.00221877, Final residual = 1.05699e-05, No Iterations 8
ExecutionTime = 5.83 s  ClockTime = 6 s

forces wings output:
    sum of forces:
        pressure : (2.04987 1.78225 -4.83563e-19)
        viscous  : (0.360545 0.0331073 8.92117e-21)
        porous   : (0 0 0)
    sum of moments:
        pressure : (-0.0891124 0.102494 4.54128)
        viscous  : (-0.00165537 0.0180272 -0.0323894)
        porous   : (0 0 0)

Time = 61

smoothSolver:  Solving for Ux, Initial residual = 0.00221863, Final residual = 9.4081e-06, No Iterations 8
smoothSolver:  Solving for Uy, Initial residual = 0.00120624, Final residual = 6.04205e-06, No Iterations 8
GAMG:  Solving for p, Initial residual = 0.00121133, Final residual = 1.06748e-05, No Iterations 4
time step continuity errors : sum local = 3.55981e-06, global = 2.10054e-16, cumulative = 1.18067e-14
smoothSolver:  Solving for nuTilda, Initial residual = 0.00216493, Final residual = 1.03007e-05, No Iterations 8
ExecutionTime = 5.92 s  ClockTime = 6 s

Time = 62

smoothSolver:  Solving for Ux, Initial residual = 0.00219277, Final residual = 9.30343e-06, No Iterations 8
smoothSolver:  Solving for Uy, Initial residual = 0.00120022, Final residual = 5.99885e-06, No Iterations 8
GAMG:  Solving for p, Initial residual = 0.0011739, Final residual = 1.16999e-05, No Iterations 4
time step continuity errors : sum local = 3.90359e-06, global = 5.04316e-16, cumulative = 1.2311e-14
smoothSolver:  Solving for nuTilda, Initial residual = 0.00211305, Final residual = 1.00416e-05, No Iterations 8
ExecutionTime = 6.01 s  ClockTime = 6 s

Time = 63

smoothSolver:  Solving for Ux, Initial residual = 0.00216794, Final residual = 9.19545e-06, No Iterations 8
smoothSolver:  Solving for Uy, Initial residual = 0.00119513, Final residual = 5.95447e-06, No Iterations 8
GAMG:  Solving for p, Initial residual = 0.00113219, Final residual = 1.0285e-05, No Iterations 4
time step continuity errors : sum local = 3.43175e-06, global = 1.36129e-17, cumulative = 1.23246e-14
smoothSolver:  Solving for nuTilda, Initial residual = 0.00206286, Final residual = 9.79063e-06, No Iterations 8
ExecutionTime = 6.1 s  ClockTime = 6 s

Time = 64

smoothSolver:  Solving for Ux, Initial residual = 0.00214678, Final residual = 9.10032e-06, No Iterations 8
smoothSolver:  Solving for Uy, Initial residual = 0.00118775, Final residual = 5.90074e-06, No Iterations 8
GAMG:  Solving for p, Initial residual = 0.0010965, Final residual = 6.51112e-06, No Iterations 5
time step continuity errors : sum local = 2.17287e-06, global = 1.16519e-16, cumulative = 1.24411e-14
smoothSolver:  Solving for nuTilda, Initial residual = 0.00201442, Final residual = 9.54857e-06, No Iterations 8
ExecutionTime = 6.19 s  ClockTime = 6 s

Time = 65

smoothSolver:  Solving for Ux, Initial residual = 0.00212579, Final residual = 9.00361e-06, No Iterations 8
smoothSolver:  Solving for Uy, Initial residual = 0.00117965, Final residual = 5.8416e-06, No Iterations 8
GAMG:  Solving for p, Initial residual = 0.00107179, Final residual = 5.88892e-06, No Iterations 5
time step continuity errors : sum local = 1.96336e-06, global = 3.61006e-16, cumulative = 1.28021e-14
smoothSolver:  Solving for nuTilda, Initial residual = 0.00196751, Final residual = 9.31371e-06, No Iterations 8
ExecutionTime = 6.28 s  ClockTime = 6 s

forces wings output:
    sum of forces:
        pressure : (2.10678 1.59825 -4.79883e-19)
        viscous  : (0.349091 0.031723 8.98189e-21)
        porous   : (0 0 0)
    sum of moments:
        pressure : (-0.0799127 0.105339 4.56376)
        viscous  : (-0.00158615 0.0174545 -0.0313975)
        porous   : (0 0 0)

Time = 66

smoothSolver:  Solving for Ux, Initial residual = 0.00210443, Final residual = 8.90441e-06, No Iterations 8
smoothSolver:  Solving for Uy, Initial residual = 0.00117196, Final residual = 5.78231e-06, No Iterations 8
GAMG:  Solving for p, Initial residual = 0.00104907, Final residual = 5.78062e-06, No Iterations 5
time step continuity errors : sum local = 1.92643e-06, global = 6.58382e-17, cumulative = 1.2868e-14
smoothSolver:  Solving for nuTilda, Initial residual = 0.00192223, Final residual = 9.08703e-06, No Iterations 8
ExecutionTime = 6.37 s  ClockTime = 7 s

Time = 67

smoothSolver:  Solving for Ux, Initial residual = 0.00208308, Final residual = 8.80472e-06, No Iterations 8
smoothSolver:  Solving for Uy, Initial residual = 0.00116558, Final residual = 5.72697e-06, No Iterations 8
GAMG:  Solving for p, Initial residual = 0.00102014, Final residual = 5.96656e-06, No Iterations 5
time step continuity errors : sum local = 1.99032e-06, global = 3.53552e-16, cumulative = 1.32215e-14
smoothSolver:  Solving for nuTilda, Initial residual = 0.00187838, Final residual = 8.86747e-06, No Iterations 8
ExecutionTime = 6.46 s  ClockTime = 7 s

Time = 68

smoothSolver:  Solving for Ux, Initial residual = 0.00206261, Final residual = 8.70792e-06, No Iterations 8
smoothSolver:  Solving for Uy, Initial residual = 0.00115958, Final residual = 5.67407e-06, No Iterations 8
GAMG:  Solving for p, Initial residual = 0.0010012, Final residual = 6.01734e-06, No Iterations 5
time step continuity errors : sum local = 2.00944e-06, global = 2.93532e-16, cumulative = 1.3515e-14
smoothSolver:  Solving for nuTilda, Initial residual = 0.00183594, Final residual = 8.65543e-06, No Iterations 8
ExecutionTime = 6.56 s  ClockTime = 7 s

Time = 69

smoothSolver:  Solving for Ux, Initial residual = 0.00204343, Final residual = 8.6158e-06, No Iterations 8
smoothSolver:  Solving for Uy, Initial residual = 0.00115319, Final residual = 5.62033e-06, No Iterations 8
GAMG:  Solving for p, Initial residual = 0.000982465, Final residual = 5.71973e-06, No Iterations 5
time step continuity errors : sum local = 1.91142e-06, global = 3.31641e-16, cumulative = 1.38467e-14
smoothSolver:  Solving for nuTilda, Initial residual = 0.00179464, Final residual = 8.44956e-06, No Iterations 8
ExecutionTime = 6.65 s  ClockTime = 7 s

Time = 70

smoothSolver:  Solving for Ux, Initial residual = 0.00202574, Final residual = 8.52763e-06, No Iterations 8
smoothSolver:  Solving for Uy, Initial residual = 0.00114608, Final residual = 5.56403e-06, No Iterations 8
GAMG:  Solving for p, Initial residual = 0.00096777, Final residual = 5.62279e-06, No Iterations 5
time step continuity errors : sum local = 1.87753e-06, global = 1.12899e-16, cumulative = 1.39596e-14
smoothSolver:  Solving for nuTilda, Initial residual = 0.00175455, Final residual = 8.25037e-06, No Iterations 8
ExecutionTime = 6.75 s  ClockTime = 7 s

forces wings output:
    sum of forces:
        pressure : (2.1602 1.45395 -4.76868e-19)
        viscous  : (0.338127 0.0304039 9.82241e-21)
        porous   : (0 0 0)
    sum of moments:
        pressure : (-0.0726974 0.10801 4.59748)
        viscous  : (-0.00152019 0.0169063 -0.0304496)
        porous   : (0 0 0)

Time = 71

smoothSolver:  Solving for Ux, Initial residual = 0.00200879, Final residual = 8.44117e-06, No Iterations 8
smoothSolver:  Solving for Uy, Initial residual = 0.00113861, Final residual = 5.50629e-06, No Iterations 8
GAMG:  Solving for p, Initial residual = 0.000951442, Final residual = 5.55199e-06, No Iterations 5
time step continuity errors : sum local = 1.85311e-06, global = 2.66905e-16, cumulative = 1.42265e-14
smoothSolver:  Solving for nuTilda, Initial residual = 0.0017156, Final residual = 8.05707e-06, No Iterations 8
ExecutionTime = 6.84 s  ClockTime = 7 s

Time = 72

smoothSolver:  Solving for Ux, Initial residual = 0.00199205, Final residual = 8.35457e-06, No Iterations 8
smoothSolver:  Solving for Uy, Initial residual = 0.00113116, Final residual = 5.44892e-06, No Iterations 8
GAMG:  Solving for p, Initial residual = 0.000943265, Final residual = 5.53208e-06, No Iterations 5
time step continuity errors : sum local = 1.8455e-06, global = 1.66943e-16, cumulative = 1.43934e-14
smoothSolver:  Solving for nuTilda, Initial residual = 0.00167777, Final residual = 7.86984e-06, No Iterations 8
ExecutionTime = 6.93 s  ClockTime = 7 s

Time = 73

smoothSolver:  Solving for Ux, Initial residual = 0.00197526, Final residual = 8.26824e-06, No Iterations 8
smoothSolver:  Solving for Uy, Initial residual = 0.00112413, Final residual = 5.39341e-06, No Iterations 8
GAMG:  Solving for p, Initial residual = 0.000931908, Final residual = 5.52286e-06, No Iterations 5
time step continuity errors : sum local = 1.84243e-06, global = -1.90883e-17, cumulative = 1.43743e-14
smoothSolver:  Solving for nuTilda, Initial residual = 0.00164105, Final residual = 7.68794e-06, No Iterations 8
ExecutionTime = 7.03 s  ClockTime = 7 s

Time = 74

smoothSolver:  Solving for Ux, Initial residual = 0.00195863, Final residual = 8.1836e-06, No Iterations 8
smoothSolver:  Solving for Uy, Initial residual = 0.00111732, Final residual = 5.33863e-06, No Iterations 8
GAMG:  Solving for p, Initial residual = 0.000925588, Final residual = 5.48407e-06, No Iterations 5
time step continuity errors : sum local = 1.8298e-06, global = 2.05736e-16, cumulative = 1.45801e-14
smoothSolver:  Solving for nuTilda, Initial residual = 0.00160534, Final residual = 7.51174e-06, No Iterations 8
ExecutionTime = 7.12 s  ClockTime = 7 s

Time = 75

smoothSolver:  Solving for Ux, Initial residual = 0.00194248, Final residual = 8.10103e-06, No Iterations 8
smoothSolver:  Solving for Uy, Initial residual = 0.00111042, Final residual = 5.28282e-06, No Iterations 8
GAMG:  Solving for p, Initial residual = 0.000914833, Final residual = 5.31638e-06, No Iterations 5
time step continuity errors : sum local = 1.77475e-06, global = 1.16905e-16, cumulative = 1.4697e-14
smoothSolver:  Solving for nuTilda, Initial residual = 0.0015707, Final residual = 7.34078e-06, No Iterations 8
ExecutionTime = 7.21 s  ClockTime = 7 s

forces wings output:
    sum of forces:
        pressure : (2.20901 1.34551 -4.75468e-19)
        viscous  : (0.327696 0.0291526 1.02548e-20)
        porous   : (0 0 0)
    sum of moments:
        pressure : (-0.0672754 0.110451 4.63868)
        viscous  : (-0.00145763 0.0163848 -0.0295435)
        porous   : (0 0 0)

Time = 76

smoothSolver:  Solving for Ux, Initial residual = 0.00192694, Final residual = 8.02037e-06, No Iterations 8
smoothSolver:  Solving for Uy, Initial residual = 0.00110319, Final residual = 5.22523e-06, No Iterations 8
GAMG:  Solving for p, Initial residual = 0.000909647, Final residual = 5.22684e-06, No Iterations 5
time step continuity errors : sum local = 1.74484e-06, global = -8.0619e-17, cumulative = 1.46164e-14
smoothSolver:  Solving for nuTilda, Initial residual = 0.00153708, Final residual = 7.17532e-06, No Iterations 8
ExecutionTime = 7.3 s  ClockTime = 7 s

Time = 77

smoothSolver:  Solving for Ux, Initial residual = 0.00191186, Final residual = 7.94072e-06, No Iterations 8
smoothSolver:  Solving for Uy, Initial residual = 0.00109583, Final residual = 5.16723e-06, No Iterations 8
GAMG:  Solving for p, Initial residual = 0.000901239, Final residual = 5.20037e-06, No Iterations 5
time step continuity errors : sum local = 1.73575e-06, global = -6.67881e-17, cumulative = 1.45496e-14
smoothSolver:  Solving for nuTilda, Initial residual = 0.00150433, Final residual = 7.01477e-06, No Iterations 8
ExecutionTime = 7.39 s  ClockTime = 8 s

Time = 78

smoothSolver:  Solving for Ux, Initial residual = 0.00189696, Final residual = 7.8619e-06, No Iterations 8
smoothSolver:  Solving for Uy, Initial residual = 0.00108843, Final residual = 5.10981e-06, No Iterations 8
GAMG:  Solving for p, Initial residual = 0.000897143, Final residual = 5.16796e-06, No Iterations 5
time step continuity errors : sum local = 1.7246e-06, global = 4.17493e-16, cumulative = 1.49671e-14
smoothSolver:  Solving for nuTilda, Initial residual = 0.00147248, Final residual = 6.8593e-06, No Iterations 8
ExecutionTime = 7.48 s  ClockTime = 8 s

Time = 79

smoothSolver:  Solving for Ux, Initial residual = 0.00188224, Final residual = 7.78425e-06, No Iterations 8
smoothSolver:  Solving for Uy, Initial residual = 0.00108115, Final residual = 5.05373e-06, No Iterations 8
GAMG:  Solving for p, Initial residual = 0.00088994, Final residual = 5.07431e-06, No Iterations 5
time step continuity errors : sum local = 1.69337e-06, global = 8.58823e-17, cumulative = 1.5053e-14
smoothSolver:  Solving for nuTilda, Initial residual = 0.00144156, Final residual = 6.70837e-06, No Iterations 8
ExecutionTime = 7.57 s  ClockTime = 8 s

Time = 80

smoothSolver:  Solving for Ux, Initial residual = 0.00186782, Final residual = 7.70807e-06, No Iterations 8
smoothSolver:  Solving for Uy, Initial residual = 0.00107386, Final residual = 4.99822e-06, No Iterations 8
GAMG:  Solving for p, Initial residual = 0.000885732, Final residual = 4.98672e-06, No Iterations 5
time step continuity errors : sum local = 1.66388e-06, global = 3.978e-16, cumulative = 1.54508e-14
smoothSolver:  Solving for nuTilda, Initial residual = 0.0014115, Final residual = 6.56207e-06, No Iterations 8
ExecutionTime = 7.67 s  ClockTime = 8 s

forces wings output:
    sum of forces:
        pressure : (2.25876 1.23134 -4.75626e-19)
        viscous  : (0.317769 0.0279774 1.00111e-20)
        porous   : (0 0 0)
    sum of moments:
        pressure : (-0.0615669 0.112938 4.67906)
        viscous  : (-0.00139887 0.0158884 -0.0286811)
        porous   : (0 0 0)

Time = 81

smoothSolver:  Solving for Ux, Initial residual = 0.00185365, Final residual = 7.63274e-06, No Iterations 8
smoothSolver:  Solving for Uy, Initial residual = 0.00106655, Final residual = 4.94284e-06, No Iterations 8
GAMG:  Solving for p, Initial residual = 0.000878442, Final residual = 4.88789e-06, No Iterations 5
time step continuity errors : sum local = 1.63095e-06, global = -1.40862e-17, cumulative = 1.54367e-14
smoothSolver:  Solving for nuTilda, Initial residual = 0.00138229, Final residual = 6.41992e-06, No Iterations 8
ExecutionTime = 7.77 s  ClockTime = 8 s

Time = 82

smoothSolver:  Solving for Ux, Initial residual = 0.00183975, Final residual = 7.55876e-06, No Iterations 8
smoothSolver:  Solving for Uy, Initial residual = 0.00105906, Final residual = 4.88681e-06, No Iterations 8
GAMG:  Solving for p, Initial residual = 0.000874063, Final residual = 4.81731e-06, No Iterations 5
time step continuity errors : sum local = 1.60737e-06, global = 1.67709e-16, cumulative = 1.56044e-14
smoothSolver:  Solving for nuTilda, Initial residual = 0.00135391, Final residual = 6.28189e-06, No Iterations 8
ExecutionTime = 7.86 s  ClockTime = 8 s

Time = 83

smoothSolver:  Solving for Ux, Initial residual = 0.00182599, Final residual = 7.4859e-06, No Iterations 8
smoothSolver:  Solving for Uy, Initial residual = 0.00105151, Final residual = 4.83078e-06, No Iterations 8
GAMG:  Solving for p, Initial residual = 0.000866976, Final residual = 4.75849e-06, No Iterations 5
time step continuity errors : sum local = 1.58779e-06, global = 2.59971e-16, cumulative = 1.58644e-14
smoothSolver:  Solving for nuTilda, Initial residual = 0.00132633, Final residual = 6.1475e-06, No Iterations 8
ExecutionTime = 7.95 s  ClockTime = 8 s

Time = 84

smoothSolver:  Solving for Ux, Initial residual = 0.00181238, Final residual = 7.41405e-06, No Iterations 8
smoothSolver:  Solving for Uy, Initial residual = 0.00104393, Final residual = 4.77511e-06, No Iterations 8
GAMG:  Solving for p, Initial residual = 0.000863469, Final residual = 4.72276e-06, No Iterations 5
time step continuity errors : sum local = 1.57553e-06, global = 1.19102e-16, cumulative = 1.59835e-14
smoothSolver:  Solving for nuTilda, Initial residual = 0.00129954, Final residual = 6.01686e-06, No Iterations 8
ExecutionTime = 8.04 s  ClockTime = 8 s

Time = 85

smoothSolver:  Solving for Ux, Initial residual = 0.00179886, Final residual = 7.34333e-06, No Iterations 8
smoothSolver:  Solving for Uy, Initial residual = 0.00103638, Final residual = 4.72017e-06, No Iterations 8
GAMG:  Solving for p, Initial residual = 0.00085681, Final residual = 4.66585e-06, No Iterations 5
time step continuity errors : sum local = 1.5562e-06, global = 2.13228e-16, cumulative = 1.61967e-14
smoothSolver:  Solving for nuTilda, Initial residual = 0.00127347, Final residual = 5.88971e-06, No Iterations 8
ExecutionTime = 8.14 s  ClockTime = 8 s

forces wings output:
    sum of forces:
        pressure : (2.30742 1.12028 -4.76757e-19)
        viscous  : (0.308416 0.0268689 1.00912e-20)
        porous   : (0 0 0)
    sum of moments:
        pressure : (-0.056014 0.115371 4.71881)
        viscous  : (-0.00134344 0.0154208 -0.0278652)
        porous   : (0 0 0)

Time = 86

smoothSolver:  Solving for Ux, Initial residual = 0.00178541, Final residual = 7.27391e-06, No Iterations 8
smoothSolver:  Solving for Uy, Initial residual = 0.00102877, Final residual = 4.66559e-06, No Iterations 8
GAMG:  Solving for p, Initial residual = 0.000852687, Final residual = 4.60523e-06, No Iterations 5
time step continuity errors : sum local = 1.53555e-06, global = 1.66821e-16, cumulative = 1.63635e-14
smoothSolver:  Solving for nuTilda, Initial residual = 0.0012481, Final residual = 5.76613e-06, No Iterations 8
ExecutionTime = 8.23 s  ClockTime = 8 s

Time = 87

smoothSolver:  Solving for Ux, Initial residual = 0.00177205, Final residual = 7.20527e-06, No Iterations 8
smoothSolver:  Solving for Uy, Initial residual = 0.0010211, Final residual = 4.61132e-06, No Iterations 8
GAMG:  Solving for p, Initial residual = 0.000845398, Final residual = 4.52894e-06, No Iterations 5
time step continuity errors : sum local = 1.50987e-06, global = -1.80077e-16, cumulative = 1.61834e-14
smoothSolver:  Solving for nuTilda, Initial residual = 0.00122343, Final residual = 5.64581e-06, No Iterations 8
ExecutionTime = 8.32 s  ClockTime = 8 s

Time = 88

smoothSolver:  Solving for Ux, Initial residual = 0.00175886, Final residual = 7.13746e-06, No Iterations 8
smoothSolver:  Solving for Uy, Initial residual = 0.00101327, Final residual = 4.55708e-06, No Iterations 8
GAMG:  Solving for p, Initial residual = 0.000840363, Final residual = 4.44458e-06, No Iterations 5
time step continuity errors : sum local = 1.48156e-06, global = 3.20783e-16, cumulative = 1.65042e-14
smoothSolver:  Solving for nuTilda, Initial residual = 0.00119945, Final residual = 5.52884e-06, No Iterations 8
ExecutionTime = 8.42 s  ClockTime = 9 s

Time = 89

smoothSolver:  Solving for Ux, Initial residual = 0.00174576, Final residual = 7.0708e-06, No Iterations 8
smoothSolver:  Solving for Uy, Initial residual = 0.0010054, Final residual = 4.50307e-06, No Iterations 8
GAMG:  Solving for p, Initial residual = 0.00083247, Final residual = 4.34442e-06, No Iterations 5
time step continuity errors : sum local = 1.44811e-06, global = 2.35079e-16, cumulative = 1.67393e-14
smoothSolver:  Solving for nuTilda, Initial residual = 0.00117611, Final residual = 5.41493e-06, No Iterations 8
ExecutionTime = 8.51 s  ClockTime = 9 s

Time = 90

smoothSolver:  Solving for Ux, Initial residual = 0.00173279, Final residual = 7.00488e-06, No Iterations 8
smoothSolver:  Solving for Uy, Initial residual = 0.000997449, Final residual = 4.44909e-06, No Iterations 8
GAMG:  Solving for p, Initial residual = 0.000826838, Final residual = 4.25456e-06, No Iterations 5
time step continuity errors : sum local = 1.41799e-06, global = 3.08527e-16, cumulative = 1.70478e-14
smoothSolver:  Solving for nuTilda, Initial residual = 0.00115338, Final residual = 5.30419e-06, No Iterations 8
ExecutionTime = 8.61 s  ClockTime = 9 s

forces wings output:
    sum of forces:
        pressure : (2.35286 1.02109 -4.78439e-19)
        viscous  : (0.29992 0.0258452 1.0069e-20)
        porous   : (0 0 0)
    sum of moments:
        pressure : (-0.0510543 0.117643 4.75794)
        viscous  : (-0.00129226 0.014996 -0.0271265)
        porous   : (0 0 0)

Time = 91

smoothSolver:  Solving for Ux, Initial residual = 0.00171985, Final residual = 6.93955e-06, No Iterations 8
smoothSolver:  Solving for Uy, Initial residual = 0.000989469, Final residual = 4.3958e-06, No Iterations 8
GAMG:  Solving for p, Initial residual = 0.000818572, Final residual = 4.16202e-06, No Iterations 5
time step continuity errors : sum local = 1.387e-06, global = 2.57905e-16, cumulative = 1.73057e-14
smoothSolver:  Solving for nuTilda, Initial residual = 0.00113124, Final residual = 5.19627e-06, No Iterations 8
ExecutionTime = 8.71 s  ClockTime = 9 s

Time = 92

smoothSolver:  Solving for Ux, Initial residual = 0.00170699, Final residual = 6.87477e-06, No Iterations 8
smoothSolver:  Solving for Uy, Initial residual = 0.000981424, Final residual = 4.34293e-06, No Iterations 8
GAMG:  Solving for p, Initial residual = 0.000812554, Final residual = 4.07204e-06, No Iterations 5
time step continuity errors : sum local = 1.35689e-06, global = 2.67222e-16, cumulative = 1.75729e-14
smoothSolver:  Solving for nuTilda, Initial residual = 0.00110965, Final residual = 5.09114e-06, No Iterations 8
ExecutionTime = 8.8 s  ClockTime = 9 s

Time = 93

smoothSolver:  Solving for Ux, Initial residual = 0.00169422, Final residual = 6.81077e-06, No Iterations 8
smoothSolver:  Solving for Uy, Initial residual = 0.000973364, Final residual = 4.29066e-06, No Iterations 8
GAMG:  Solving for p, Initial residual = 0.000803885, Final residual = 3.69626e-06, No Iterations 5
time step continuity errors : sum local = 1.23279e-06, global = 4.50251e-16, cumulative = 1.80232e-14
smoothSolver:  Solving for nuTilda, Initial residual = 0.00108858, Final residual = 4.98845e-06, No Iterations 8
ExecutionTime = 8.9 s  ClockTime = 9 s

Time = 94

smoothSolver:  Solving for Ux, Initial residual = 0.00168153, Final residual = 6.7476e-06, No Iterations 8
smoothSolver:  Solving for Uy, Initial residual = 0.000965195, Final residual = 4.23829e-06, No Iterations 8
GAMG:  Solving for p, Initial residual = 0.000797145, Final residual = 4.31479e-06, No Iterations 5
time step continuity errors : sum local = 1.4384e-06, global = 1.10968e-16, cumulative = 1.81342e-14
smoothSolver:  Solving for nuTilda, Initial residual = 0.00106802, Final residual = 4.88813e-06, No Iterations 8
ExecutionTime = 8.99 s  ClockTime = 9 s

Time = 95

smoothSolver:  Solving for Ux, Initial residual = 0.00166885, Final residual = 6.68439e-06, No Iterations 8
smoothSolver:  Solving for Uy, Initial residual = 0.000957198, Final residual = 4.18681e-06, No Iterations 8
GAMG:  Solving for p, Initial residual = 0.000788043, Final residual = 4.0076e-06, No Iterations 5
time step continuity errors : sum local = 1.33564e-06, global = 4.4114e-17, cumulative = 1.81783e-14
smoothSolver:  Solving for nuTilda, Initial residual = 0.00104793, Final residual = 4.79004e-06, No Iterations 8
ExecutionTime = 9.08 s  ClockTime = 9 s

forces wings output:
    sum of forces:
        pressure : (2.39438 0.930833 -4.80523e-19)
        viscous  : (0.29239 0.0249137 9.92181e-21)
        porous   : (0 0 0)
    sum of moments:
        pressure : (-0.0465417 0.119719 4.79387)
        viscous  : (-0.00124568 0.0146195 -0.0264718)
        porous   : (0 0 0)

Time = 96

smoothSolver:  Solving for Ux, Initial residual = 0.00165629, Final residual = 6.62246e-06, No Iterations 8
smoothSolver:  Solving for Uy, Initial residual = 0.000949038, Final residual = 4.13562e-06, No Iterations 8
GAMG:  Solving for p, Initial residual = 0.000780863, Final residual = 3.45395e-06, No Iterations 5
time step continuity errors : sum local = 1.15303e-06, global = 4.88148e-16, cumulative = 1.86664e-14
smoothSolver:  Solving for nuTilda, Initial residual = 0.00102831, Final residual = 4.69431e-06, No Iterations 8
ExecutionTime = 9.18 s  ClockTime = 9 s

Time = 97

smoothSolver:  Solving for Ux, Initial residual = 0.00164388, Final residual = 6.56156e-06, No Iterations 8
smoothSolver:  Solving for Uy, Initial residual = 0.000940688, Final residual = 4.08425e-06, No Iterations 8
GAMG:  Solving for p, Initial residual = 0.000771655, Final residual = 3.96347e-06, No Iterations 5
time step continuity errors : sum local = 1.32116e-06, global = 3.78535e-16, cumulative = 1.9045e-14
smoothSolver:  Solving for nuTilda, Initial residual = 0.00100914, Final residual = 4.60079e-06, No Iterations 8
ExecutionTime = 9.28 s  ClockTime = 9 s

Time = 98

smoothSolver:  Solving for Ux, Initial residual = 0.00163138, Final residual = 6.50015e-06, No Iterations 8
smoothSolver:  Solving for Uy, Initial residual = 0.000932489, Final residual = 4.03384e-06, No Iterations 8
GAMG:  Solving for p, Initial residual = 0.000763919, Final residual = 3.64528e-06, No Iterations 5
time step continuity errors : sum local = 1.21528e-06, global = 3.20148e-16, cumulative = 1.93651e-14
smoothSolver:  Solving for nuTilda, Initial residual = 0.000990392, Final residual = 4.50949e-06, No Iterations 8
ExecutionTime = 9.39 s  ClockTime = 10 s

Time = 99

smoothSolver:  Solving for Ux, Initial residual = 0.0016189, Final residual = 6.4394e-06, No Iterations 8
smoothSolver:  Solving for Uy, Initial residual = 0.0009242, Final residual = 3.98405e-06, No Iterations 8
GAMG:  Solving for p, Initial residual = 0.000753977, Final residual = 3.16322e-06, No Iterations 5
time step continuity errors : sum local = 1.05755e-06, global = 4.32061e-16, cumulative = 1.97972e-14
smoothSolver:  Solving for nuTilda, Initial residual = 0.000972056, Final residual = 4.42026e-06, No Iterations 8
ExecutionTime = 9.5 s  ClockTime = 10 s

Time = 100

smoothSolver:  Solving for Ux, Initial residual = 0.00160647, Final residual = 6.37946e-06, No Iterations 8
smoothSolver:  Solving for Uy, Initial residual = 0.000915769, Final residual = 3.93451e-06, No Iterations 8
GAMG:  Solving for p, Initial residual = 0.000745807, Final residual = 3.61405e-06, No Iterations 5
time step continuity errors : sum local = 1.20496e-06, global = 3.5998e-16, cumulative = 2.01571e-14
smoothSolver:  Solving for nuTilda, Initial residual = 0.000954118, Final residual = 4.33313e-06, No Iterations 8
ExecutionTime = 9.6 s  ClockTime = 10 s

forces wings output:
    sum of forces:
        pressure : (2.43258 0.845318 -4.83351e-19)
        viscous  : (0.285487 0.0240565 1.01502e-20)
        porous   : (0 0 0)
    sum of moments:
        pressure : (-0.0422659 0.121629 4.82581)
        viscous  : (-0.00120283 0.0142743 -0.0258708)
        porous   : (0 0 0)

Time = 101

smoothSolver:  Solving for Ux, Initial residual = 0.00159401, Final residual = 6.3193e-06, No Iterations 8
smoothSolver:  Solving for Uy, Initial residual = 0.000907531, Final residual = 3.88573e-06, No Iterations 8
GAMG:  Solving for p, Initial residual = 0.000735248, Final residual = 3.09047e-06, No Iterations 5
time step continuity errors : sum local = 1.03305e-06, global = 1.5204e-16, cumulative = 2.03092e-14
smoothSolver:  Solving for nuTilda, Initial residual = 0.000936562, Final residual = 4.2479e-06, No Iterations 8
ExecutionTime = 9.71 s  ClockTime = 10 s

Time = 102

smoothSolver:  Solving for Ux, Initial residual = 0.00158162, Final residual = 6.25976e-06, No Iterations 8
smoothSolver:  Solving for Uy, Initial residual = 0.000899108, Final residual = 3.83716e-06, No Iterations 8
GAMG:  Solving for p, Initial residual = 0.000726395, Final residual = 3.43728e-06, No Iterations 5
time step continuity errors : sum local = 1.14627e-06, global = 6.63503e-17, cumulative = 2.03755e-14
smoothSolver:  Solving for nuTilda, Initial residual = 0.000919375, Final residual = 4.16465e-06, No Iterations 8
ExecutionTime = 9.81 s  ClockTime = 10 s

Time = 103

smoothSolver:  Solving for Ux, Initial residual = 0.00156923, Final residual = 6.20028e-06, No Iterations 8
smoothSolver:  Solving for Uy, Initial residual = 0.000890782, Final residual = 3.78945e-06, No Iterations 8
GAMG:  Solving for p, Initial residual = 0.000715498, Final residual = 3.01409e-06, No Iterations 5
time step continuity errors : sum local = 1.00875e-06, global = 3.65641e-16, cumulative = 2.07412e-14
smoothSolver:  Solving for nuTilda, Initial residual = 0.00090255, Final residual = 4.08332e-06, No Iterations 8
ExecutionTime = 9.9 s  ClockTime = 10 s

Time = 104

smoothSolver:  Solving for Ux, Initial residual = 0.00155695, Final residual = 6.14162e-06, No Iterations 8
smoothSolver:  Solving for Uy, Initial residual = 0.000882094, Final residual = 3.74119e-06, No Iterations 8
GAMG:  Solving for p, Initial residual = 0.000706103, Final residual = 3.07472e-06, No Iterations 5
time step continuity errors : sum local = 1.02598e-06, global = -1.7404e-16, cumulative = 2.05671e-14
smoothSolver:  Solving for nuTilda, Initial residual = 0.000886093, Final residual = 4.00396e-06, No Iterations 8
ExecutionTime = 10 s  ClockTime = 10 s

Time = 105

smoothSolver:  Solving for Ux, Initial residual = 0.00154457, Final residual = 6.08214e-06, No Iterations 8
smoothSolver:  Solving for Uy, Initial residual = 0.000873846, Final residual = 3.69504e-06, No Iterations 8
GAMG:  Solving for p, Initial residual = 0.000694899, Final residual = 2.97497e-06, No Iterations 5
time step continuity errors : sum local = 9.94589e-07, global = 2.49609e-16, cumulative = 2.08167e-14
smoothSolver:  Solving for nuTilda, Initial residual = 0.000869997, Final residual = 3.92643e-06, No Iterations 8
ExecutionTime = 10.1 s  ClockTime = 10 s

forces wings output:
    sum of forces:
        pressure : (2.46683 0.764972 -4.86497e-19)
        viscous  : (0.279021 0.023252 1.00692e-20)
        porous   : (0 0 0)
    sum of moments:
        pressure : (-0.0382486 0.123341 4.85283)
        viscous  : (-0.0011626 0.013951 -0.0253057)
        porous   : (0 0 0)

Time = 106

smoothSolver:  Solving for Ux, Initial residual = 0.00153213, Final residual = 6.02254e-06, No Iterations 8
smoothSolver:  Solving for Uy, Initial residual = 0.000865905, Final residual = 3.6501e-06, No Iterations 8
GAMG:  Solving for p, Initial residual = 0.000685216, Final residual = 3.05771e-06, No Iterations 5
time step continuity errors : sum local = 1.01313e-06, global = 1.43531e-16, cumulative = 2.09603e-14
smoothSolver:  Solving for nuTilda, Initial residual = 0.000854247, Final residual = 3.85075e-06, No Iterations 8
ExecutionTime = 10.21 s  ClockTime = 10 s

Time = 107

smoothSolver:  Solving for Ux, Initial residual = 0.00151982, Final residual = 5.96329e-06, No Iterations 8
smoothSolver:  Solving for Uy, Initial residual = 0.000857845, Final residual = 3.60562e-06, No Iterations 8
GAMG:  Solving for p, Initial residual = 0.000674187, Final residual = 3.01523e-06, No Iterations 5
time step continuity errors : sum local = 9.99262e-07, global = 1.78821e-16, cumulative = 2.11391e-14
smoothSolver:  Solving for nuTilda, Initial residual = 0.000838835, Final residual = 3.77681e-06, No Iterations 8
ExecutionTime = 10.31 s  ClockTime = 10 s

Time = 108

smoothSolver:  Solving for Ux, Initial residual = 0.00150761, Final residual = 5.90463e-06, No Iterations 8
smoothSolver:  Solving for Uy, Initial residual = 0.000849611, Final residual = 3.56123e-06, No Iterations 8
GAMG:  Solving for p, Initial residual = 0.00066478, Final residual = 2.96744e-06, No Iterations 5
time step continuity errors : sum local = 9.83714e-07, global = 9.22082e-17, cumulative = 2.12313e-14
smoothSolver:  Solving for nuTilda, Initial residual = 0.000823757, Final residual = 3.70462e-06, No Iterations 8
ExecutionTime = 10.41 s  ClockTime = 11 s

Time = 109

smoothSolver:  Solving for Ux, Initial residual = 0.00149544, Final residual = 5.84613e-06, No Iterations 8
smoothSolver:  Solving for Uy, Initial residual = 0.000841332, Final residual = 3.51699e-06, No Iterations 8
GAMG:  Solving for p, Initial residual = 0.000653429, Final residual = 2.91586e-06, No Iterations 5
time step continuity errors : sum local = 9.66406e-07, global = 2.33079e-16, cumulative = 2.14644e-14
smoothSolver:  Solving for nuTilda, Initial residual = 0.000809013, Final residual = 3.63406e-06, No Iterations 8
ExecutionTime = 10.51 s  ClockTime = 11 s

Time = 110

smoothSolver:  Solving for Ux, Initial residual = 0.00148328, Final residual = 5.78755e-06, No Iterations 8
smoothSolver:  Solving for Uy, Initial residual = 0.000833132, Final residual = 3.4737e-06, No Iterations 8
GAMG:  Solving for p, Initial residual = 0.000643831, Final residual = 2.84192e-06, No Iterations 5
time step continuity errors : sum local = 9.41871e-07, global = 4.82144e-16, cumulative = 2.19465e-14
smoothSolver:  Solving for nuTilda, Initial residual = 0.00079458, Final residual = 3.56505e-06, No Iterations 8
ExecutionTime = 10.62 s  ClockTime = 11 s

forces wings output:
    sum of forces:
        pressure : (2.49648 0.689866 -4.90148e-19)
        viscous  : (0.272997 0.0225007 9.08325e-21)
        porous   : (0 0 0)
    sum of moments:
        pressure : (-0.0344933 0.124824 4.87377)
        viscous  : (-0.00112504 0.0136499 -0.0247796)
        porous   : (0 0 0)

Time = 111

smoothSolver:  Solving for Ux, Initial residual = 0.00147116, Final residual = 5.72881e-06, No Iterations 8
smoothSolver:  Solving for Uy, Initial residual = 0.000825112, Final residual = 3.43142e-06, No Iterations 8
GAMG:  Solving for p, Initial residual = 0.000632564, Final residual = 2.56997e-06, No Iterations 5
time step continuity errors : sum local = 8.62751e-07, global = 3.49617e-16, cumulative = 2.22961e-14
smoothSolver:  Solving for nuTilda, Initial residual = 0.000780451, Final residual = 3.4974e-06, No Iterations 8
ExecutionTime = 10.73 s  ClockTime = 11 s

Time = 112

smoothSolver:  Solving for Ux, Initial residual = 0.00145918, Final residual = 5.6702e-06, No Iterations 8
smoothSolver:  Solving for Uy, Initial residual = 0.000817329, Final residual = 3.39028e-06, No Iterations 8
GAMG:  Solving for p, Initial residual = 0.000623018, Final residual = 2.72511e-06, No Iterations 5
time step continuity errors : sum local = 9.03767e-07, global = 2.24452e-16, cumulative = 2.25206e-14
smoothSolver:  Solving for nuTilda, Initial residual = 0.000766636, Final residual = 3.43117e-06, No Iterations 8
ExecutionTime = 10.84 s  ClockTime = 11 s

Time = 113

smoothSolver:  Solving for Ux, Initial residual = 0.00144726, Final residual = 5.61195e-06, No Iterations 8
smoothSolver:  Solving for Uy, Initial residual = 0.000809418, Final residual = 3.34985e-06, No Iterations 8
GAMG:  Solving for p, Initial residual = 0.000612137, Final residual = 2.66617e-06, No Iterations 5
time step continuity errors : sum local = 8.84366e-07, global = 4.53665e-16, cumulative = 2.29743e-14
smoothSolver:  Solving for nuTilda, Initial residual = 0.000753125, Final residual = 3.36626e-06, No Iterations 8
ExecutionTime = 10.95 s  ClockTime = 11 s

Time = 114

smoothSolver:  Solving for Ux, Initial residual = 0.00143535, Final residual = 5.55387e-06, No Iterations 8
smoothSolver:  Solving for Uy, Initial residual = 0.000801567, Final residual = 3.31e-06, No Iterations 8
GAMG:  Solving for p, Initial residual = 0.000602849, Final residual = 2.4003e-06, No Iterations 5
time step continuity errors : sum local = 8.056e-07, global = 2.44288e-16, cumulative = 2.32185e-14
smoothSolver:  Solving for nuTilda, Initial residual = 0.000739906, Final residual = 3.30274e-06, No Iterations 8
ExecutionTime = 11.05 s  ClockTime = 11 s

Time = 115

smoothSolver:  Solving for Ux, Initial residual = 0.00142341, Final residual = 5.49566e-06, No Iterations 8
smoothSolver:  Solving for Uy, Initial residual = 0.000793901, Final residual = 3.27105e-06, No Iterations 8
GAMG:  Solving for p, Initial residual = 0.000592507, Final residual = 2.63022e-06, No Iterations 5
time step continuity errors : sum local = 8.78312e-07, global = 5.32184e-16, cumulative = 2.37507e-14
smoothSolver:  Solving for nuTilda, Initial residual = 0.000727005, Final residual = 3.24082e-06, No Iterations 8
ExecutionTime = 11.16 s  ClockTime = 11 s

forces wings output:
    sum of forces:
        pressure : (2.52162 0.617911 -4.93963e-19)
        viscous  : (0.267479 0.0217986 8.16297e-21)
        porous   : (0 0 0)
    sum of moments:
        pressure : (-0.0308955 0.126081 4.88784)
        viscous  : (-0.00108993 0.013374 -0.0242974)
        porous   : (0 0 0)

Time = 116

smoothSolver:  Solving for Ux, Initial residual = 0.00141151, Final residual = 5.43761e-06, No Iterations 8
smoothSolver:  Solving for Uy, Initial residual = 0.000786301, Final residual = 3.23283e-06, No Iterations 8
GAMG:  Solving for p, Initial residual = 0.000584097, Final residual = 2.47738e-06, No Iterations 5
time step continuity errors : sum local = 8.27664e-07, global = 1.84212e-16, cumulative = 2.39349e-14
smoothSolver:  Solving for nuTilda, Initial residual = 0.000714423, Final residual = 3.18061e-06, No Iterations 8
ExecutionTime = 11.27 s  ClockTime = 11 s

Time = 117

smoothSolver:  Solving for Ux, Initial residual = 0.00139957, Final residual = 5.37973e-06, No Iterations 8
smoothSolver:  Solving for Uy, Initial residual = 0.000778767, Final residual = 3.19584e-06, No Iterations 8
GAMG:  Solving for p, Initial residual = 0.000574772, Final residual = 2.27567e-06, No Iterations 5
time step continuity errors : sum local = 7.62774e-07, global = 1.29045e-16, cumulative = 2.4064e-14
smoothSolver:  Solving for nuTilda, Initial residual = 0.000702148, Final residual = 3.12198e-06, No Iterations 8
ExecutionTime = 11.36 s  ClockTime = 12 s

Time = 118

smoothSolver:  Solving for Ux, Initial residual = 0.00138766, Final residual = 5.32205e-06, No Iterations 8
smoothSolver:  Solving for Uy, Initial residual = 0.000771373, Final residual = 3.15992e-06, No Iterations 8
GAMG:  Solving for p, Initial residual = 0.000567246, Final residual = 2.45763e-06, No Iterations 5
time step continuity errors : sum local = 8.20333e-07, global = -2.15984e-17, cumulative = 2.40424e-14
smoothSolver:  Solving for nuTilda, Initial residual = 0.000690131, Final residual = 3.06478e-06, No Iterations 8
ExecutionTime = 11.45 s  ClockTime = 12 s

Time = 119

smoothSolver:  Solving for Ux, Initial residual = 0.00137569, Final residual = 5.26428e-06, No Iterations 8
smoothSolver:  Solving for Uy, Initial residual = 0.000764046, Final residual = 3.12422e-06, No Iterations 8
GAMG:  Solving for p, Initial residual = 0.000558805, Final residual = 2.29878e-06, No Iterations 5
time step continuity errors : sum local = 7.67722e-07, global = 5.07658e-17, cumulative = 2.40932e-14
smoothSolver:  Solving for nuTilda, Initial residual = 0.000678354, Final residual = 3.00878e-06, No Iterations 8
ExecutionTime = 11.54 s  ClockTime = 12 s

Time = 120

smoothSolver:  Solving for Ux, Initial residual = 0.00136373, Final residual = 5.20658e-06, No Iterations 8
smoothSolver:  Solving for Uy, Initial residual = 0.000756894, Final residual = 3.08963e-06, No Iterations 8
GAMG:  Solving for p, Initial residual = 0.00055308, Final residual = 2.13277e-06, No Iterations 5
time step continuity errors : sum local = 7.12782e-07, global = 4.568e-17, cumulative = 2.41388e-14
smoothSolver:  Solving for nuTilda, Initial residual = 0.000666832, Final residual = 2.95407e-06, No Iterations 8
ExecutionTime = 11.64 s  ClockTime = 12 s

forces wings output:
    sum of forces:
        pressure : (2.54349 0.546147 -4.98656e-19)
        viscous  : (0.262385 0.0211446 8.13499e-21)
        porous   : (0 0 0)
    sum of moments:
        pressure : (-0.0273073 0.127175 4.89602)
        viscous  : (-0.00105723 0.0131192 -0.0238521)
        porous   : (0 0 0)

Time = 121

smoothSolver:  Solving for Ux, Initial residual = 0.00135173, Final residual = 5.14905e-06, No Iterations 8
smoothSolver:  Solving for Uy, Initial residual = 0.000749909, Final residual = 3.0564e-06, No Iterations 8
GAMG:  Solving for p, Initial residual = 0.000546798, Final residual = 5.44729e-06, No Iterations 4
time step continuity errors : sum local = 1.82211e-06, global = 3.68307e-16, cumulative = 2.45071e-14
smoothSolver:  Solving for nuTilda, Initial residual = 0.00065557, Final residual = 2.90064e-06, No Iterations 8
ExecutionTime = 11.74 s  ClockTime = 12 s

Time = 122

smoothSolver:  Solving for Ux, Initial residual = 0.00133983, Final residual = 5.09152e-06, No Iterations 8
smoothSolver:  Solving for Uy, Initial residual = 0.000743123, Final residual = 3.02407e-06, No Iterations 8
[...]

forces wings output:
    sum of forces:
        pressure : (2.12205 -4.59612 -5.41147e-19)
        viscous  : (0.119815 0.0117442 1.08491e-20)
        porous   : (0 0 0)
    sum of moments:
        pressure : (0.229806 0.106103 1.84342)
        viscous  : (-0.000587212 0.00599073 -0.0104699)
        porous   : (0 0 0)

Time = 4971

smoothSolver:  Solving for Ux, Initial residual = 2.77813e-08, Final residual = 5.74385e-09, No Iterations 2
smoothSolver:  Solving for Uy, Initial residual = 1.55145e-07, Final residual = 6.40213e-09, No Iterations 4
GAMG:  Solving for p, Initial residual = 1.10294e-06, Final residual = 4.30817e-07, No Iterations 1
time step continuity errors : sum local = 1.48768e-07, global = 1.46979e-16, cumulative = 9.48358e-13
smoothSolver:  Solving for nuTilda, Initial residual = 1.05895e-08, Final residual = 2.39672e-09, No Iterations 2
ExecutionTime = 395.79 s  ClockTime = 396 s

Time = 4972

smoothSolver:  Solving for Ux, Initial residual = 3.40575e-08, Final residual = 6.37312e-09, No Iterations 2
smoothSolver:  Solving for Uy, Initial residual = 2.03422e-07, Final residual = 7.19587e-09, No Iterations 4
GAMG:  Solving for p, Initial residual = 1.09352e-06, Final residual = 3.75376e-07, No Iterations 1
time step continuity errors : sum local = 1.29631e-07, global = 1.30392e-16, cumulative = 9.48488e-13
smoothSolver:  Solving for nuTilda, Initial residual = 9.79142e-09, Final residual = 9.79142e-09, No Iterations 0
ExecutionTime = 395.85 s  ClockTime = 396 s

Time = 4973

smoothSolver:  Solving for Ux, Initial residual = 3.38104e-08, Final residual = 6.40885e-09, No Iterations 2
smoothSolver:  Solving for Uy, Initial residual = 1.97154e-07, Final residual = 7.0494e-09, No Iterations 4
GAMG:  Solving for p, Initial residual = 1.02594e-06, Final residual = 4.11109e-07, No Iterations 1
time step continuity errors : sum local = 1.41971e-07, global = 3.8529e-16, cumulative = 9.48874e-13
smoothSolver:  Solving for nuTilda, Initial residual = 9.90157e-09, Final residual = 9.90157e-09, No Iterations 0
ExecutionTime = 395.92 s  ClockTime = 397 s

Time = 4974

smoothSolver:  Solving for Ux, Initial residual = 2.97204e-08, Final residual = 6.01873e-09, No Iterations 2
smoothSolver:  Solving for Uy, Initial residual = 1.7116e-07, Final residual = 6.7999e-09, No Iterations 4
GAMG:  Solving for p, Initial residual = 1.0857e-06, Final residual = 4.17304e-07, No Iterations 1
time step continuity errors : sum local = 1.44114e-07, global = 2.7806e-16, cumulative = 9.49152e-13
smoothSolver:  Solving for nuTilda, Initial residual = 1.00165e-08, Final residual = 2.45109e-09, No Iterations 2
ExecutionTime = 395.98 s  ClockTime = 397 s

Time = 4975

smoothSolver:  Solving for Ux, Initial residual = 2.95727e-08, Final residual = 5.97484e-09, No Iterations 2
smoothSolver:  Solving for Uy, Initial residual = 1.70174e-07, Final residual = 6.80173e-09, No Iterations 4
GAMG:  Solving for p, Initial residual = 9.14882e-07, Final residual = 9.14882e-07, No Iterations 0
time step continuity errors : sum local = 3.1589e-07, global = -4.60238e-17, cumulative = 9.49106e-13
smoothSolver:  Solving for nuTilda, Initial residual = 1.06545e-08, Final residual = 2.41448e-09, No Iterations 2
ExecutionTime = 396.04 s  ClockTime = 397 s

forces wings output:
    sum of forces:
        pressure : (2.12206 -4.59612 -5.41153e-19)
        viscous  : (0.119814 0.0117443 1.08493e-20)
        porous   : (0 0 0)
    sum of moments:
        pressure : (0.229806 0.106103 1.84342)
        viscous  : (-0.000587214 0.00599069 -0.0104697)
        porous   : (0 0 0)

Time = 4976

smoothSolver:  Solving for Ux, Initial residual = 2.8375e-08, Final residual = 5.89197e-09, No Iterations 2
smoothSolver:  Solving for Uy, Initial residual = 1.60064e-07, Final residual = 6.73824e-09, No Iterations 4
GAMG:  Solving for p, Initial residual = 1.43131e-06, Final residual = 5.36537e-07, No Iterations 1
time step continuity errors : sum local = 1.85282e-07, global = 9.36533e-17, cumulative = 9.49199e-13
smoothSolver:  Solving for nuTilda, Initial residual = 9.85381e-09, Final residual = 9.85381e-09, No Iterations 0
ExecutionTime = 396.11 s  ClockTime = 397 s

Time = 4977

smoothSolver:  Solving for Ux, Initial residual = 2.79941e-08, Final residual = 5.7966e-09, No Iterations 2
smoothSolver:  Solving for Uy, Initial residual = 1.54378e-07, Final residual = 6.38806e-09, No Iterations 4
GAMG:  Solving for p, Initial residual = 9.38737e-07, Final residual = 9.38737e-07, No Iterations 0
time step continuity errors : sum local = 3.24128e-07, global = 8.94715e-17, cumulative = 9.49289e-13
smoothSolver:  Solving for nuTilda, Initial residual = 9.98494e-09, Final residual = 9.98494e-09, No Iterations 0
ExecutionTime = 396.18 s  ClockTime = 397 s

Time = 4978

smoothSolver:  Solving for Ux, Initial residual = 2.62743e-08, Final residual = 5.61728e-09, No Iterations 2
smoothSolver:  Solving for Uy, Initial residual = 1.448e-07, Final residual = 6.23052e-09, No Iterations 4
GAMG:  Solving for p, Initial residual = 1.28695e-06, Final residual = 4.80535e-07, No Iterations 1
time step continuity errors : sum local = 1.6595e-07, global = 2.7153e-16, cumulative = 9.4956e-13
smoothSolver:  Solving for nuTilda, Initial residual = 1.00747e-08, Final residual = 2.46127e-09, No Iterations 2
ExecutionTime = 396.24 s  ClockTime = 397 s

Time = 4979

smoothSolver:  Solving for Ux, Initial residual = 2.93946e-08, Final residual = 5.85437e-09, No Iterations 2
smoothSolver:  Solving for Uy, Initial residual = 1.65853e-07, Final residual = 6.39472e-09, No Iterations 4
GAMG:  Solving for p, Initial residual = 9.06051e-07, Final residual = 9.06051e-07, No Iterations 0
time step continuity errors : sum local = 3.12846e-07, global = 1.08344e-16, cumulative = 9.49669e-13
smoothSolver:  Solving for nuTilda, Initial residual = 1.06838e-08, Final residual = 2.41663e-09, No Iterations 2
ExecutionTime = 396.31 s  ClockTime = 397 s

Time = 4980

smoothSolver:  Solving for Ux, Initial residual = 2.80994e-08, Final residual = 5.76719e-09, No Iterations 2
smoothSolver:  Solving for Uy, Initial residual = 1.55984e-07, Final residual = 6.35041e-09, No Iterations 4
GAMG:  Solving for p, Initial residual = 1.31528e-06, Final residual = 4.95586e-07, No Iterations 1
time step continuity errors : sum local = 1.71144e-07, global = 3.69353e-16, cumulative = 9.50038e-13
smoothSolver:  Solving for nuTilda, Initial residual = 9.86155e-09, Final residual = 9.86155e-09, No Iterations 0
ExecutionTime = 396.38 s  ClockTime = 397 s

forces wings output:
    sum of forces:
        pressure : (2.12206 -4.59613 -5.4115e-19)
        viscous  : (0.119813 0.0117443 1.08492e-20)
        porous   : (0 0 0)
    sum of moments:
        pressure : (0.229806 0.106103 1.84342)
        viscous  : (-0.000587214 0.00599064 -0.0104697)
        porous   : (0 0 0)

Time = 4981

smoothSolver:  Solving for Ux, Initial residual = 2.82149e-08, Final residual = 5.73166e-09, No Iterations 2
smoothSolver:  Solving for Uy, Initial residual = 1.57216e-07, Final residual = 6.35555e-09, No Iterations 4
GAMG:  Solving for p, Initial residual = 9.38107e-07, Final residual = 9.38107e-07, No Iterations 0
time step continuity errors : sum local = 3.23915e-07, global = 1.15532e-16, cumulative = 9.50154e-13
smoothSolver:  Solving for nuTilda, Initial residual = 9.97959e-09, Final residual = 9.97959e-09, No Iterations 0
ExecutionTime = 396.44 s  ClockTime = 397 s

Time = 4982

smoothSolver:  Solving for Ux, Initial residual = 2.64649e-08, Final residual = 5.53474e-09, No Iterations 2
smoothSolver:  Solving for Uy, Initial residual = 1.47533e-07, Final residual = 6.22811e-09, No Iterations 4
GAMG:  Solving for p, Initial residual = 1.32794e-06, Final residual = 5.03009e-07, No Iterations 1
time step continuity errors : sum local = 1.73704e-07, global = 1.39118e-16, cumulative = 9.50293e-13
smoothSolver:  Solving for nuTilda, Initial residual = 1.00655e-08, Final residual = 2.45559e-09, No Iterations 2
ExecutionTime = 396.51 s  ClockTime = 397 s

Time = 4983

smoothSolver:  Solving for Ux, Initial residual = 2.81467e-08, Final residual = 5.66766e-09, No Iterations 2
smoothSolver:  Solving for Uy, Initial residual = 1.61701e-07, Final residual = 6.37665e-09, No Iterations 4
GAMG:  Solving for p, Initial residual = 9.21956e-07, Final residual = 9.21956e-07, No Iterations 0
time step continuity errors : sum local = 3.18338e-07, global = 1.21303e-16, cumulative = 9.50414e-13
smoothSolver:  Solving for nuTilda, Initial residual = 1.06531e-08, Final residual = 2.40849e-09, No Iterations 2
ExecutionTime = 396.57 s  ClockTime = 397 s

Time = 4984

smoothSolver:  Solving for Ux, Initial residual = 2.69743e-08, Final residual = 5.59558e-09, No Iterations 2
smoothSolver:  Solving for Uy, Initial residual = 1.52202e-07, Final residual = 6.33539e-09, No Iterations 4
GAMG:  Solving for p, Initial residual = 1.31172e-06, Final residual = 4.87708e-07, No Iterations 1
time step continuity errors : sum local = 1.68418e-07, global = 2.65944e-17, cumulative = 9.50441e-13
smoothSolver:  Solving for nuTilda, Initial residual = 9.82627e-09, Final residual = 9.82627e-09, No Iterations 0
ExecutionTime = 396.64 s  ClockTime = 397 s

Time = 4985

smoothSolver:  Solving for Ux, Initial residual = 2.87125e-08, Final residual = 5.76216e-09, No Iterations 2
smoothSolver:  Solving for Uy, Initial residual = 1.63181e-07, Final residual = 6.48953e-09, No Iterations 4
GAMG:  Solving for p, Initial residual = 9.19288e-07, Final residual = 9.19288e-07, No Iterations 0
time step continuity errors : sum local = 3.17416e-07, global = 2.27918e-16, cumulative = 9.50669e-13
smoothSolver:  Solving for nuTilda, Initial residual = 9.95098e-09, Final residual = 9.95098e-09, No Iterations 0
ExecutionTime = 396.7 s  ClockTime = 397 s

forces wings output:
    sum of forces:
        pressure : (2.12206 -4.59615 -5.41149e-19)
        viscous  : (0.119814 0.0117443 1.08493e-20)
        porous   : (0 0 0)
    sum of moments:
        pressure : (0.229808 0.106103 1.84342)
        viscous  : (-0.000587213 0.0059907 -0.0104698)
        porous   : (0 0 0)

Time = 4986

smoothSolver:  Solving for Ux, Initial residual = 2.69087e-08, Final residual = 5.56543e-09, No Iterations 2
smoothSolver:  Solving for Uy, Initial residual = 1.53192e-07, Final residual = 6.32127e-09, No Iterations 4
GAMG:  Solving for p, Initial residual = 1.31105e-06, Final residual = 4.95683e-07, No Iterations 1
time step continuity errors : sum local = 1.71171e-07, global = 3.05062e-16, cumulative = 9.50974e-13
smoothSolver:  Solving for nuTilda, Initial residual = 1.00312e-08, Final residual = 2.45253e-09, No Iterations 2
ExecutionTime = 396.77 s  ClockTime = 397 s

Time = 4987

smoothSolver:  Solving for Ux, Initial residual = 2.82309e-08, Final residual = 5.72532e-09, No Iterations 2
smoothSolver:  Solving for Uy, Initial residual = 1.60335e-07, Final residual = 6.36232e-09, No Iterations 4
GAMG:  Solving for p, Initial residual = 9.25839e-07, Final residual = 9.25839e-07, No Iterations 0
time step continuity errors : sum local = 3.19676e-07, global = 3.16202e-16, cumulative = 9.5129e-13
smoothSolver:  Solving for nuTilda, Initial residual = 1.06666e-08, Final residual = 2.41537e-09, No Iterations 2
ExecutionTime = 396.84 s  ClockTime = 397 s

Time = 4988

smoothSolver:  Solving for Ux, Initial residual = 2.70405e-08, Final residual = 5.64438e-09, No Iterations 2
smoothSolver:  Solving for Uy, Initial residual = 1.50994e-07, Final residual = 6.31472e-09, No Iterations 4
GAMG:  Solving for p, Initial residual = 1.31933e-06, Final residual = 4.98208e-07, No Iterations 1
time step continuity errors : sum local = 1.72045e-07, global = 2.60695e-16, cumulative = 9.51551e-13
smoothSolver:  Solving for nuTilda, Initial residual = 9.84561e-09, Final residual = 9.84561e-09, No Iterations 0
ExecutionTime = 396.9 s  ClockTime = 398 s

Time = 4989

smoothSolver:  Solving for Ux, Initial residual = 2.88129e-08, Final residual = 5.87468e-09, No Iterations 2
smoothSolver:  Solving for Uy, Initial residual = 1.59596e-07, Final residual = 6.28259e-09, No Iterations 4
GAMG:  Solving for p, Initial residual = 9.2167e-07, Final residual = 9.2167e-07, No Iterations 0
time step continuity errors : sum local = 3.18238e-07, global = 3.21491e-16, cumulative = 9.51872e-13
smoothSolver:  Solving for nuTilda, Initial residual = 9.98187e-09, Final residual = 9.98187e-09, No Iterations 0
ExecutionTime = 396.97 s  ClockTime = 398 s

Time = 4990

smoothSolver:  Solving for Ux, Initial residual = 2.70349e-08, Final residual = 5.68949e-09, No Iterations 2
smoothSolver:  Solving for Uy, Initial residual = 1.49388e-07, Final residual = 6.1187e-09, No Iterations 4
GAMG:  Solving for p, Initial residual = 1.31496e-06, Final residual = 4.96099e-07, No Iterations 1
time step continuity errors : sum local = 1.71321e-07, global = 5.29442e-16, cumulative = 9.52401e-13
smoothSolver:  Solving for nuTilda, Initial residual = 1.00648e-08, Final residual = 2.45873e-09, No Iterations 2
ExecutionTime = 397.04 s  ClockTime = 398 s

forces wings output:
    sum of forces:
        pressure : (2.12207 -4.59614 -5.41155e-19)
        viscous  : (0.119815 0.0117442 1.08492e-20)
        porous   : (0 0 0)
    sum of moments:
        pressure : (0.229807 0.106103 1.84343)
        viscous  : (-0.000587211 0.00599073 -0.0104699)
        porous   : (0 0 0)

Time = 4991

smoothSolver:  Solving for Ux, Initial residual = 2.87378e-08, Final residual = 5.83845e-09, No Iterations 2
smoothSolver:  Solving for Uy, Initial residual = 1.59568e-07, Final residual = 6.22222e-09, No Iterations 4
GAMG:  Solving for p, Initial residual = 9.23685e-07, Final residual = 9.23685e-07, No Iterations 0
time step continuity errors : sum local = 3.18935e-07, global = 9.27899e-17, cumulative = 9.52494e-13
smoothSolver:  Solving for nuTilda, Initial residual = 1.06911e-08, Final residual = 2.41759e-09, No Iterations 2
ExecutionTime = 397.1 s  ClockTime = 398 s

Time = 4992

smoothSolver:  Solving for Ux, Initial residual = 2.75624e-08, Final residual = 5.77034e-09, No Iterations 2
smoothSolver:  Solving for Uy, Initial residual = 1.5013e-07, Final residual = 6.16404e-09, No Iterations 4
GAMG:  Solving for p, Initial residual = 1.31036e-06, Final residual = 4.94924e-07, No Iterations 1
time step continuity errors : sum local = 1.70919e-07, global = 3.60444e-16, cumulative = 9.52855e-13
smoothSolver:  Solving for nuTilda, Initial residual = 9.87674e-09, Final residual = 9.87674e-09, No Iterations 0
ExecutionTime = 397.17 s  ClockTime = 398 s

Time = 4993

smoothSolver:  Solving for Ux, Initial residual = 2.86681e-08, Final residual = 5.78501e-09, No Iterations 2
smoothSolver:  Solving for Uy, Initial residual = 1.56974e-07, Final residual = 6.11636e-09, No Iterations 4
GAMG:  Solving for p, Initial residual = 9.14732e-07, Final residual = 9.14732e-07, No Iterations 0
time step continuity errors : sum local = 3.15846e-07, global = 3.34945e-16, cumulative = 9.5319e-13
smoothSolver:  Solving for nuTilda, Initial residual = 9.99954e-09, Final residual = 9.99954e-09, No Iterations 0
ExecutionTime = 397.24 s  ClockTime = 398 s

Time = 4994

smoothSolver:  Solving for Ux, Initial residual = 2.68378e-08, Final residual = 5.58334e-09, No Iterations 2
smoothSolver:  Solving for Uy, Initial residual = 1.46815e-07, Final residual = 5.97208e-09, No Iterations 4
GAMG:  Solving for p, Initial residual = 1.31004e-06, Final residual = 4.95869e-07, No Iterations 1
time step continuity errors : sum local = 1.71246e-07, global = 3.23549e-16, cumulative = 9.53513e-13
smoothSolver:  Solving for nuTilda, Initial residual = 1.00952e-08, Final residual = 2.46002e-09, No Iterations 2
ExecutionTime = 397.31 s  ClockTime = 398 s

Time = 4995

smoothSolver:  Solving for Ux, Initial residual = 2.79448e-08, Final residual = 5.6057e-09, No Iterations 2
smoothSolver:  Solving for Uy, Initial residual = 1.60122e-07, Final residual = 6.29667e-09, No Iterations 4
GAMG:  Solving for p, Initial residual = 9.23448e-07, Final residual = 9.23448e-07, No Iterations 0
time step continuity errors : sum local = 3.18857e-07, global = 1.78727e-16, cumulative = 9.53692e-13
smoothSolver:  Solving for nuTilda, Initial residual = 1.06739e-08, Final residual = 2.4123e-09, No Iterations 2
ExecutionTime = 397.37 s  ClockTime = 398 s

forces wings output:
    sum of forces:
        pressure : (2.12207 -4.59614 -5.41153e-19)
        viscous  : (0.119814 0.0117442 1.08492e-20)
        porous   : (0 0 0)
    sum of moments:
        pressure : (0.229807 0.106103 1.84343)
        viscous  : (-0.000587212 0.00599069 -0.0104698)
        porous   : (0 0 0)

Time = 4996

smoothSolver:  Solving for Ux, Initial residual = 2.67569e-08, Final residual = 5.52183e-09, No Iterations 2
smoothSolver:  Solving for Uy, Initial residual = 1.50851e-07, Final residual = 6.28659e-09, No Iterations 4
GAMG:  Solving for p, Initial residual = 1.31196e-06, Final residual = 4.92992e-07, No Iterations 1
time step continuity errors : sum local = 1.70252e-07, global = 2.27352e-16, cumulative = 9.53919e-13
smoothSolver:  Solving for nuTilda, Initial residual = 9.85232e-09, Final residual = 9.85232e-09, No Iterations 0
ExecutionTime = 397.44 s  ClockTime = 398 s

Time = 4997

smoothSolver:  Solving for Ux, Initial residual = 2.81564e-08, Final residual = 5.61352e-09, No Iterations 2
smoothSolver:  Solving for Uy, Initial residual = 1.62989e-07, Final residual = 6.48066e-09, No Iterations 4
GAMG:  Solving for p, Initial residual = 9.14249e-07, Final residual = 9.14249e-07, No Iterations 0
time step continuity errors : sum local = 3.15682e-07, global = 5.61312e-17, cumulative = 9.53975e-13
smoothSolver:  Solving for nuTilda, Initial residual = 9.96191e-09, Final residual = 9.96191e-09, No Iterations 0
ExecutionTime = 397.5 s  ClockTime = 398 s

Time = 4998

smoothSolver:  Solving for Ux, Initial residual = 2.63776e-08, Final residual = 5.42179e-09, No Iterations 2
smoothSolver:  Solving for Uy, Initial residual = 1.52946e-07, Final residual = 6.33358e-09, No Iterations 4
GAMG:  Solving for p, Initial residual = 1.30633e-06, Final residual = 4.89192e-07, No Iterations 1
time step continuity errors : sum local = 1.68939e-07, global = 1.7032e-16, cumulative = 9.54146e-13
smoothSolver:  Solving for nuTilda, Initial residual = 1.00376e-08, Final residual = 2.45207e-09, No Iterations 2
ExecutionTime = 397.57 s  ClockTime = 398 s

Time = 4999

smoothSolver:  Solving for Ux, Initial residual = 2.77527e-08, Final residual = 5.51774e-09, No Iterations 2
smoothSolver:  Solving for Uy, Initial residual = 1.64216e-07, Final residual = 6.57042e-09, No Iterations 4
GAMG:  Solving for p, Initial residual = 9.17247e-07, Final residual = 9.17247e-07, No Iterations 0
time step continuity errors : sum local = 3.16717e-07, global = 1.85053e-16, cumulative = 9.54331e-13
smoothSolver:  Solving for nuTilda, Initial residual = 1.0653e-08, Final residual = 2.41277e-09, No Iterations 2
ExecutionTime = 397.63 s  ClockTime = 398 s

Time = 5000

smoothSolver:  Solving for Ux, Initial residual = 2.65602e-08, Final residual = 5.44064e-09, No Iterations 2
smoothSolver:  Solving for Uy, Initial residual = 1.54949e-07, Final residual = 6.52026e-09, No Iterations 4
GAMG:  Solving for p, Initial residual = 1.30739e-06, Final residual = 4.96755e-07, No Iterations 1
time step continuity errors : sum local = 1.71549e-07, global = 1.25783e-16, cumulative = 9.54457e-13
smoothSolver:  Solving for nuTilda, Initial residual = 9.82152e-09, Final residual = 9.82152e-09, No Iterations 0
ExecutionTime = 397.84 s  ClockTime = 398 s

forces wings output:
    sum of forces:
        pressure : (2.12207 -4.59616 -5.41149e-19)
        viscous  : (0.119813 0.0117442 1.08494e-20)
        porous   : (0 0 0)
    sum of moments:
        pressure : (0.229808 0.106103 1.84342)
        viscous  : (-0.000587212 0.00599063 -0.0104696)
        porous   : (0 0 0)

End

