/*---------------------------------------------------------------------------*\
| =========                 |                                                 |
| \\      /  F ield         | OpenFOAM: The Open Source CFD Toolbox           |
|  \\    /   O peration     | Version:  2.3.0                                 |
|   \\  /    A nd           | Web:      www.OpenFOAM.org                      |
|    \\/     M anipulation  |                                                 |
\*---------------------------------------------------------------------------*/
Build  : 2.3.0-f5222ca19ce6
Exec   : simpleFoam -case Runs/first_arc_300_-8/case
Date   : Jan 12 2015
Time   : 00:11:05
Host   : "lordvon-XPS-8300"
PID    : 9164
Case   : Runs/first_arc_300_-8/case
nProcs : 1
sigFpe : Enabling floating point exception trapping (FOAM_SIGFPE).
fileModificationChecking : Monitoring run-time modified files using timeStampMaster
allowSystemOperations : Disallowing user-supplied system call operations

// * * * * * * * * * * * * * * * * * * * * * * * * * * * * * * * * * * * * * //
Create time

Create mesh for time = 0

Reading field p

Reading field U

Reading/calculating face flux field phi

Selecting incompressible transport model Newtonian
Selecting RAS turbulence model SpalartAllmaras
SpalartAllmarasCoeffs
{
    sigmaNut        0.66666;
    kappa           0.41;
    Cb1             0.1355;
    Cb2             0.622;
    Cw2             0.3;
    Cw3             2;
    Cv1             7.1;
    Cv2             5;
}

    Employing Ashford correction
No finite volume options present


SIMPLE: convergence criteria
    field p	 tolerance 1e-12
    field U	 tolerance 1e-12
    field nuTilda	 tolerance 1e-12


Starting time loop

forces wings:
    Not including porosity effects

Time = 1

smoothSolver:  Solving for Ux, Initial residual = 1, Final residual = 0.00488226, No Iterations 6
smoothSolver:  Solving for Uy, Initial residual = 1, Final residual = 0.00795185, No Iterations 4
GAMG:  Solving for p, Initial residual = 1, Final residual = 0.00741134, No Iterations 10
time step continuity errors : sum local = 0.000783477, global = 1.94842e-16, cumulative = 1.94842e-16
smoothSolver:  Solving for nuTilda, Initial residual = 1, Final residual = 0.00395444, No Iterations 4
ExecutionTime = 0.37 s  ClockTime = 0 s

Time = 2

smoothSolver:  Solving for Ux, Initial residual = 0.544823, Final residual = 0.00283143, No Iterations 8
smoothSolver:  Solving for Uy, Initial residual = 0.591476, Final residual = 0.00329869, No Iterations 8
GAMG:  Solving for p, Initial residual = 0.756922, Final residual = 0.00538722, No Iterations 6
time step continuity errors : sum local = 0.00120516, global = 1.85693e-16, cumulative = 3.80534e-16
smoothSolver:  Solving for nuTilda, Initial residual = 0.185599, Final residual = 0.000711207, No Iterations 6
ExecutionTime = 0.46 s  ClockTime = 0 s

Time = 3

smoothSolver:  Solving for Ux, Initial residual = 0.193031, Final residual = 0.000982752, No Iterations 8
smoothSolver:  Solving for Uy, Initial residual = 0.184946, Final residual = 0.00101461, No Iterations 8
GAMG:  Solving for p, Initial residual = 0.585969, Final residual = 0.00466, No Iterations 9
time step continuity errors : sum local = 0.001433, global = 6.41533e-17, cumulative = 4.44687e-16
smoothSolver:  Solving for nuTilda, Initial residual = 0.0944828, Final residual = 0.000838064, No Iterations 6
ExecutionTime = 0.56 s  ClockTime = 0 s

Time = 4

smoothSolver:  Solving for Ux, Initial residual = 0.0633161, Final residual = 0.000262669, No Iterations 8
smoothSolver:  Solving for Uy, Initial residual = 0.0566331, Final residual = 0.000291541, No Iterations 8
GAMG:  Solving for p, Initial residual = 0.473931, Final residual = 0.00380006, No Iterations 7
time step continuity errors : sum local = 0.00117029, global = 1.40592e-16, cumulative = 5.8528e-16
smoothSolver:  Solving for nuTilda, Initial residual = 0.0714946, Final residual = 0.000200127, No Iterations 8
ExecutionTime = 0.65 s  ClockTime = 1 s

Time = 5

smoothSolver:  Solving for Ux, Initial residual = 0.18619, Final residual = 0.000936576, No Iterations 8
smoothSolver:  Solving for Uy, Initial residual = 0.202746, Final residual = 0.00108971, No Iterations 8
GAMG:  Solving for p, Initial residual = 0.412346, Final residual = 0.00283149, No Iterations 6
time step continuity errors : sum local = 0.000917653, global = 1.41006e-16, cumulative = 7.26285e-16
smoothSolver:  Solving for nuTilda, Initial residual = 0.0587127, Final residual = 0.000182523, No Iterations 8
ExecutionTime = 0.75 s  ClockTime = 1 s

forces wings output:
    sum of forces:
        pressure : (-279.246 973.495 2.62768e-18)
        viscous  : (0.526286 0.0498522 -9.41708e-20)
        porous   : (0 0 0)
    sum of moments:
        pressure : (-48.6748 -13.9623 -12.4709)
        viscous  : (-0.00249261 0.0263143 -0.0470231)
        porous   : (0 0 0)

Time = 6

smoothSolver:  Solving for Ux, Initial residual = 0.150573, Final residual = 0.000723685, No Iterations 8
smoothSolver:  Solving for Uy, Initial residual = 0.174285, Final residual = 0.000928278, No Iterations 8
GAMG:  Solving for p, Initial residual = 0.335785, Final residual = 0.00307494, No Iterations 7
time step continuity errors : sum local = 0.00103019, global = 2.40926e-16, cumulative = 9.67211e-16
smoothSolver:  Solving for nuTilda, Initial residual = 0.0486495, Final residual = 0.000159744, No Iterations 8
ExecutionTime = 0.85 s  ClockTime = 1 s

Time = 7

smoothSolver:  Solving for Ux, Initial residual = 0.109827, Final residual = 0.000482215, No Iterations 8
smoothSolver:  Solving for Uy, Initial residual = 0.135558, Final residual = 0.000701398, No Iterations 8
GAMG:  Solving for p, Initial residual = 0.259088, Final residual = 0.00240268, No Iterations 5
time step continuity errors : sum local = 0.000789929, global = 9.01818e-17, cumulative = 1.05739e-15
smoothSolver:  Solving for nuTilda, Initial residual = 0.0406599, Final residual = 0.000138626, No Iterations 8
ExecutionTime = 0.94 s  ClockTime = 1 s

Time = 8

smoothSolver:  Solving for Ux, Initial residual = 0.123085, Final residual = 0.000603071, No Iterations 8
smoothSolver:  Solving for Uy, Initial residual = 0.137336, Final residual = 0.000724524, No Iterations 8
GAMG:  Solving for p, Initial residual = 0.269888, Final residual = 0.00222616, No Iterations 7
time step continuity errors : sum local = 0.00076489, global = 9.24926e-17, cumulative = 1.14989e-15
smoothSolver:  Solving for nuTilda, Initial residual = 0.0343377, Final residual = 0.000120772, No Iterations 8
ExecutionTime = 1.04 s  ClockTime = 1 s

Time = 9

smoothSolver:  Solving for Ux, Initial residual = 0.0474104, Final residual = 0.000208688, No Iterations 8
smoothSolver:  Solving for Uy, Initial residual = 0.0363064, Final residual = 0.000184843, No Iterations 8
GAMG:  Solving for p, Initial residual = 0.215201, Final residual = 0.00179431, No Iterations 8
time step continuity errors : sum local = 0.000616502, global = 1.88756e-16, cumulative = 1.33864e-15
smoothSolver:  Solving for nuTilda, Initial residual = 0.0295005, Final residual = 0.000106763, No Iterations 8
ExecutionTime = 1.14 s  ClockTime = 1 s

Time = 10

smoothSolver:  Solving for Ux, Initial residual = 0.0503741, Final residual = 0.00021852, No Iterations 8
smoothSolver:  Solving for Uy, Initial residual = 0.0589993, Final residual = 0.000298791, No Iterations 8
GAMG:  Solving for p, Initial residual = 0.179437, Final residual = 0.00130484, No Iterations 5
time step continuity errors : sum local = 0.000434322, global = 1.74254e-17, cumulative = 1.35607e-15
smoothSolver:  Solving for nuTilda, Initial residual = 0.0257944, Final residual = 9.60911e-05, No Iterations 8
ExecutionTime = 1.23 s  ClockTime = 1 s

forces wings output:
    sum of forces:
        pressure : (-169.048 614.674 3.00454e-18)
        viscous  : (0.489515 0.0835041 -1.03957e-19)
        porous   : (0 0 0)
    sum of moments:
        pressure : (-30.7337 -8.45238 5.30865)
        viscous  : (-0.0041752 0.0244758 -0.0456657)
        porous   : (0 0 0)

Time = 11

smoothSolver:  Solving for Ux, Initial residual = 0.065197, Final residual = 0.000305296, No Iterations 8
smoothSolver:  Solving for Uy, Initial residual = 0.0823452, Final residual = 0.000420534, No Iterations 8
GAMG:  Solving for p, Initial residual = 0.184067, Final residual = 0.00126797, No Iterations 7
time step continuity errors : sum local = 0.000427907, global = -7.05495e-17, cumulative = 1.28552e-15
smoothSolver:  Solving for nuTilda, Initial residual = 0.022805, Final residual = 8.74713e-05, No Iterations 8
ExecutionTime = 1.33 s  ClockTime = 1 s

Time = 12

smoothSolver:  Solving for Ux, Initial residual = 0.0290077, Final residual = 0.000108635, No Iterations 8
smoothSolver:  Solving for Uy, Initial residual = 0.0227505, Final residual = 9.91848e-05, No Iterations 8
GAMG:  Solving for p, Initial residual = 0.145509, Final residual = 0.0012819, No Iterations 7
time step continuity errors : sum local = 0.000420393, global = -2.97119e-16, cumulative = 9.88398e-16
smoothSolver:  Solving for nuTilda, Initial residual = 0.0203473, Final residual = 8.00062e-05, No Iterations 8
ExecutionTime = 1.43 s  ClockTime = 1 s

Time = 13

smoothSolver:  Solving for Ux, Initial residual = 0.043085, Final residual = 0.00018559, No Iterations 8
smoothSolver:  Solving for Uy, Initial residual = 0.0545292, Final residual = 0.000269484, No Iterations 8
GAMG:  Solving for p, Initial residual = 0.129495, Final residual = 0.00111327, No Iterations 5
time step continuity errors : sum local = 0.000360449, global = -2.21947e-16, cumulative = 7.66452e-16
smoothSolver:  Solving for nuTilda, Initial residual = 0.0182034, Final residual = 7.32348e-05, No Iterations 8
ExecutionTime = 1.51 s  ClockTime = 1 s

Time = 14

smoothSolver:  Solving for Ux, Initial residual = 0.0372555, Final residual = 0.000167339, No Iterations 8
smoothSolver:  Solving for Uy, Initial residual = 0.0404875, Final residual = 0.000201706, No Iterations 8
GAMG:  Solving for p, Initial residual = 0.130369, Final residual = 0.000995548, No Iterations 7
time step continuity errors : sum local = 0.000327533, global = -3.82379e-16, cumulative = 3.84073e-16
smoothSolver:  Solving for nuTilda, Initial residual = 0.0163521, Final residual = 6.72501e-05, No Iterations 8
ExecutionTime = 1.61 s  ClockTime = 1 s

Time = 15

smoothSolver:  Solving for Ux, Initial residual = 0.0175146, Final residual = 6.78885e-05, No Iterations 8
smoothSolver:  Solving for Uy, Initial residual = 0.0118139, Final residual = 5.09064e-05, No Iterations 8
GAMG:  Solving for p, Initial residual = 0.100556, Final residual = 0.000932535, No Iterations 6
time step continuity errors : sum local = 0.000302294, global = 3.0646e-16, cumulative = 6.90533e-16
smoothSolver:  Solving for nuTilda, Initial residual = 0.0147992, Final residual = 6.22575e-05, No Iterations 8
ExecutionTime = 1.71 s  ClockTime = 2 s

forces wings output:
    sum of forces:
        pressure : (-56.7923 222.535 1.74374e-18)
        viscous  : (0.475427 0.0783847 -4.27429e-20)
        porous   : (0 0 0)
    sum of moments:
        pressure : (-11.1268 -2.83961 9.91634)
        viscous  : (-0.00391923 0.0237714 -0.0434922)
        porous   : (0 0 0)

Time = 16

smoothSolver:  Solving for Ux, Initial residual = 0.0225428, Final residual = 9.66002e-05, No Iterations 8
smoothSolver:  Solving for Uy, Initial residual = 0.0307528, Final residual = 0.000151016, No Iterations 8
GAMG:  Solving for p, Initial residual = 0.0951204, Final residual = 0.000556206, No Iterations 6
time step continuity errors : sum local = 0.000178654, global = -2.47405e-16, cumulative = 4.43128e-16
smoothSolver:  Solving for nuTilda, Initial residual = 0.0134948, Final residual = 5.80437e-05, No Iterations 8
ExecutionTime = 1.8 s  ClockTime = 2 s

Time = 17

smoothSolver:  Solving for Ux, Initial residual = 0.0185055, Final residual = 7.88723e-05, No Iterations 8
smoothSolver:  Solving for Uy, Initial residual = 0.02392, Final residual = 0.000116978, No Iterations 8
GAMG:  Solving for p, Initial residual = 0.0888529, Final residual = 0.000765777, No Iterations 6
time step continuity errors : sum local = 0.000249514, global = 8.74518e-17, cumulative = 5.3058e-16
smoothSolver:  Solving for nuTilda, Initial residual = 0.012376, Final residual = 5.43417e-05, No Iterations 8
ExecutionTime = 1.89 s  ClockTime = 2 s

Time = 18

smoothSolver:  Solving for Ux, Initial residual = 0.0120605, Final residual = 4.336e-05, No Iterations 8
smoothSolver:  Solving for Uy, Initial residual = 0.0126751, Final residual = 5.70175e-05, No Iterations 8
GAMG:  Solving for p, Initial residual = 0.0667334, Final residual = 0.000429175, No Iterations 6
time step continuity errors : sum local = 0.000136747, global = 8.71026e-17, cumulative = 6.17683e-16
smoothSolver:  Solving for nuTilda, Initial residual = 0.0113917, Final residual = 5.09581e-05, No Iterations 8
ExecutionTime = 1.99 s  ClockTime = 2 s

Time = 19

smoothSolver:  Solving for Ux, Initial residual = 0.0167486, Final residual = 7.13226e-05, No Iterations 8
smoothSolver:  Solving for Uy, Initial residual = 0.0202507, Final residual = 9.75087e-05, No Iterations 8
GAMG:  Solving for p, Initial residual = 0.0665489, Final residual = 0.000315781, No Iterations 6
time step continuity errors : sum local = 9.97445e-05, global = 2.73429e-16, cumulative = 8.91112e-16
smoothSolver:  Solving for nuTilda, Initial residual = 0.0105304, Final residual = 4.78756e-05, No Iterations 8
ExecutionTime = 2.08 s  ClockTime = 2 s

Time = 20

smoothSolver:  Solving for Ux, Initial residual = 0.0128715, Final residual = 5.47332e-05, No Iterations 8
smoothSolver:  Solving for Uy, Initial residual = 0.0112115, Final residual = 5.31576e-05, No Iterations 8
GAMG:  Solving for p, Initial residual = 0.0601193, Final residual = 0.000577131, No Iterations 5
time step continuity errors : sum local = 0.000182698, global = -1.06005e-16, cumulative = 7.85107e-16
smoothSolver:  Solving for nuTilda, Initial residual = 0.00980556, Final residual = 4.51591e-05, No Iterations 8
ExecutionTime = 2.17 s  ClockTime = 2 s

forces wings output:
    sum of forces:
        pressure : (-6.72112 38.3063 7.42574e-19)
        viscous  : (0.46332 0.0679821 -2.07949e-21)
        porous   : (0 0 0)
    sum of moments:
        pressure : (-1.91531 -0.336056 7.24566)
        viscous  : (-0.00339911 0.023166 -0.0417796)
        porous   : (0 0 0)

Time = 21

smoothSolver:  Solving for Ux, Initial residual = 0.00988386, Final residual = 4.00603e-05, No Iterations 8
smoothSolver:  Solving for Uy, Initial residual = 0.00907194, Final residual = 4.0506e-05, No Iterations 8
GAMG:  Solving for p, Initial residual = 0.0459308, Final residual = 0.000351476, No Iterations 6
time step continuity errors : sum local = 0.000111564, global = -1.45277e-16, cumulative = 6.3983e-16
smoothSolver:  Solving for nuTilda, Initial residual = 0.00918547, Final residual = 4.2787e-05, No Iterations 8
ExecutionTime = 2.27 s  ClockTime = 2 s

Time = 22

smoothSolver:  Solving for Ux, Initial residual = 0.00940713, Final residual = 3.77418e-05, No Iterations 8
smoothSolver:  Solving for Uy, Initial residual = 0.0128022, Final residual = 5.96981e-05, No Iterations 8
GAMG:  Solving for p, Initial residual = 0.0468871, Final residual = 0.000420338, No Iterations 5
time step continuity errors : sum local = 0.000132675, global = 1.22902e-16, cumulative = 7.62732e-16
smoothSolver:  Solving for nuTilda, Initial residual = 0.00865381, Final residual = 4.06492e-05, No Iterations 8
ExecutionTime = 2.36 s  ClockTime = 2 s

Time = 23

smoothSolver:  Solving for Ux, Initial residual = 0.00616291, Final residual = 2.14502e-05, No Iterations 8
smoothSolver:  Solving for Uy, Initial residual = 0.00701553, Final residual = 3.19654e-05, No Iterations 8
GAMG:  Solving for p, Initial residual = 0.0414504, Final residual = 0.000314714, No Iterations 5
time step continuity errors : sum local = 9.85526e-05, global = 1.23295e-16, cumulative = 8.86026e-16
smoothSolver:  Solving for nuTilda, Initial residual = 0.00818178, Final residual = 3.86705e-05, No Iterations 8
ExecutionTime = 2.45 s  ClockTime = 2 s

Time = 24

smoothSolver:  Solving for Ux, Initial residual = 0.00655852, Final residual = 2.34089e-05, No Iterations 8
smoothSolver:  Solving for Uy, Initial residual = 0.00729383, Final residual = 3.30923e-05, No Iterations 8
GAMG:  Solving for p, Initial residual = 0.0320105, Final residual = 0.000181279, No Iterations 6
time step continuity errors : sum local = 5.64812e-05, global = -1.79243e-16, cumulative = 7.06784e-16
smoothSolver:  Solving for nuTilda, Initial residual = 0.00775278, Final residual = 3.67874e-05, No Iterations 8
ExecutionTime = 2.54 s  ClockTime = 2 s

Time = 25

smoothSolver:  Solving for Ux, Initial residual = 0.00744926, Final residual = 3.05644e-05, No Iterations 8
smoothSolver:  Solving for Uy, Initial residual = 0.00734058, Final residual = 3.41874e-05, No Iterations 8
GAMG:  Solving for p, Initial residual = 0.0318852, Final residual = 0.000284155, No Iterations 5
time step continuity errors : sum local = 8.85712e-05, global = -9.86398e-17, cumulative = 6.08144e-16
smoothSolver:  Solving for nuTilda, Initial residual = 0.00734831, Final residual = 3.50179e-05, No Iterations 8
ExecutionTime = 2.63 s  ClockTime = 2 s

forces wings output:
    sum of forces:
        pressure : (6.0169 -12.0284 2.61531e-19)
        viscous  : (0.449246 0.0609302 1.04443e-20)
        porous   : (0 0 0)
    sum of moments:
        pressure : (0.601418 0.300845 4.80748)
        viscous  : (-0.00304651 0.0224623 -0.0403521)
        porous   : (0 0 0)

Time = 26

smoothSolver:  Solving for Ux, Initial residual = 0.0061181, Final residual = 2.54093e-05, No Iterations 8
smoothSolver:  Solving for Uy, Initial residual = 0.00365928, Final residual = 1.65937e-05, No Iterations 8
GAMG:  Solving for p, Initial residual = 0.0283166, Final residual = 0.000184838, No Iterations 5
time step continuity errors : sum local = 5.73708e-05, global = 1.1626e-16, cumulative = 7.24404e-16
smoothSolver:  Solving for nuTilda, Initial residual = 0.00697924, Final residual = 3.33548e-05, No Iterations 8
ExecutionTime = 2.73 s  ClockTime = 3 s

Time = 27

smoothSolver:  Solving for Ux, Initial residual = 0.00519907, Final residual = 2.12055e-05, No Iterations 8
smoothSolver:  Solving for Uy, Initial residual = 0.00462347, Final residual = 2.10808e-05, No Iterations 8
GAMG:  Solving for p, Initial residual = 0.0225958, Final residual = 0.000130447, No Iterations 6
time step continuity errors : sum local = 4.05549e-05, global = 6.15563e-17, cumulative = 7.85961e-16
smoothSolver:  Solving for nuTilda, Initial residual = 0.0066497, Final residual = 3.1874e-05, No Iterations 8
ExecutionTime = 2.82 s  ClockTime = 3 s

Time = 28

smoothSolver:  Solving for Ux, Initial residual = 0.00433246, Final residual = 1.66377e-05, No Iterations 8
smoothSolver:  Solving for Uy, Initial residual = 0.00492461, Final residual = 2.28333e-05, No Iterations 8
GAMG:  Solving for p, Initial residual = 0.0210932, Final residual = 0.000146619, No Iterations 6
time step continuity errors : sum local = 4.6008e-05, global = -3.71953e-17, cumulative = 7.48765e-16
smoothSolver:  Solving for nuTilda, Initial residual = 0.00635506, Final residual = 3.04904e-05, No Iterations 8
ExecutionTime = 2.91 s  ClockTime = 3 s

Time = 29

smoothSolver:  Solving for Ux, Initial residual = 0.00361279, Final residual = 1.26859e-05, No Iterations 8
smoothSolver:  Solving for Uy, Initial residual = 0.00336432, Final residual = 1.54121e-05, No Iterations 8
GAMG:  Solving for p, Initial residual = 0.0188719, Final residual = 9.24564e-05, No Iterations 5
time step continuity errors : sum local = 2.85746e-05, global = 7.16804e-17, cumulative = 8.20446e-16
smoothSolver:  Solving for nuTilda, Initial residual = 0.00609122, Final residual = 2.92395e-05, No Iterations 8
ExecutionTime = 3 s  ClockTime = 3 s

Time = 30

smoothSolver:  Solving for Ux, Initial residual = 0.00422697, Final residual = 1.62992e-05, No Iterations 8
smoothSolver:  Solving for Uy, Initial residual = 0.0037032, Final residual = 1.70363e-05, No Iterations 8
GAMG:  Solving for p, Initial residual = 0.0159991, Final residual = 0.000123197, No Iterations 5
time step continuity errors : sum local = 3.81755e-05, global = -2.14235e-16, cumulative = 6.06211e-16
smoothSolver:  Solving for nuTilda, Initial residual = 0.00582913, Final residual = 2.79871e-05, No Iterations 8
ExecutionTime = 3.09 s  ClockTime = 3 s

forces wings output:
    sum of forces:
        pressure : (5.36117 -11.192 1.98649e-19)
        viscous  : (0.434392 0.0568465 9.87115e-21)
        porous   : (0 0 0)
    sum of moments:
        pressure : (0.559599 0.268059 4.04286)
        viscous  : (-0.00284233 0.0217196 -0.0390459)
        porous   : (0 0 0)

Time = 31

smoothSolver:  Solving for Ux, Initial residual = 0.00442522, Final residual = 1.80633e-05, No Iterations 8
smoothSolver:  Solving for Uy, Initial residual = 0.00294247, Final residual = 1.35587e-05, No Iterations 8
GAMG:  Solving for p, Initial residual = 0.0139576, Final residual = 9.95268e-05, No Iterations 5
time step continuity errors : sum local = 3.03553e-05, global = -9.98242e-17, cumulative = 5.06386e-16
smoothSolver:  Solving for nuTilda, Initial residual = 0.00558621, Final residual = 2.68625e-05, No Iterations 8
ExecutionTime = 3.18 s  ClockTime = 3 s

Time = 32

smoothSolver:  Solving for Ux, Initial residual = 0.00414058, Final residual = 1.70744e-05, No Iterations 8
smoothSolver:  Solving for Uy, Initial residual = 0.00210709, Final residual = 9.46257e-06, No Iterations 8
GAMG:  Solving for p, Initial residual = 0.012732, Final residual = 0.000124589, No Iterations 4
time step continuity errors : sum local = 3.83203e-05, global = 4.00565e-17, cumulative = 5.46443e-16
smoothSolver:  Solving for nuTilda, Initial residual = 0.00535178, Final residual = 2.57445e-05, No Iterations 8
ExecutionTime = 3.27 s  ClockTime = 3 s

Time = 33

smoothSolver:  Solving for Ux, Initial residual = 0.00368553, Final residual = 1.497e-05, No Iterations 8
smoothSolver:  Solving for Uy, Initial residual = 0.002405, Final residual = 1.12321e-05, No Iterations 8
GAMG:  Solving for p, Initial residual = 0.0113855, Final residual = 9.33297e-05, No Iterations 5
time step continuity errors : sum local = 2.89848e-05, global = -1.6533e-16, cumulative = 3.81113e-16
smoothSolver:  Solving for nuTilda, Initial residual = 0.00514493, Final residual = 2.4783e-05, No Iterations 8
ExecutionTime = 3.36 s  ClockTime = 3 s

Time = 34

smoothSolver:  Solving for Ux, Initial residual = 0.00324728, Final residual = 1.27477e-05, No Iterations 8
smoothSolver:  Solving for Uy, Initial residual = 0.00218509, Final residual = 1.04178e-05, No Iterations 8
GAMG:  Solving for p, Initial residual = 0.0095931, Final residual = 5.28443e-05, No Iterations 5
time step continuity errors : sum local = 1.62674e-05, global = 3.39231e-16, cumulative = 7.20344e-16
smoothSolver:  Solving for nuTilda, Initial residual = 0.00494086, Final residual = 2.37929e-05, No Iterations 8
ExecutionTime = 3.45 s  ClockTime = 3 s

Time = 35

smoothSolver:  Solving for Ux, Initial residual = 0.00309049, Final residual = 1.20902e-05, No Iterations 8
smoothSolver:  Solving for Uy, Initial residual = 0.00212876, Final residual = 1.01424e-05, No Iterations 8
GAMG:  Solving for p, Initial residual = 0.00871056, Final residual = 8.515e-05, No Iterations 4
time step continuity errors : sum local = 2.61179e-05, global = 1.04338e-18, cumulative = 7.21388e-16
smoothSolver:  Solving for nuTilda, Initial residual = 0.00475583, Final residual = 2.29218e-05, No Iterations 8
ExecutionTime = 3.54 s  ClockTime = 3 s

forces wings output:
    sum of forces:
        pressure : (3.31552 -3.82064 2.37586e-19)
        viscous  : (0.419052 0.0541544 6.73885e-21)
        porous   : (0 0 0)
    sum of moments:
        pressure : (0.191032 0.165776 4.07319)
        viscous  : (-0.00270772 0.0209526 -0.0377143)
        porous   : (0 0 0)

Time = 36

smoothSolver:  Solving for Ux, Initial residual = 0.00324272, Final residual = 1.31818e-05, No Iterations 8
smoothSolver:  Solving for Uy, Initial residual = 0.00194577, Final residual = 9.38592e-06, No Iterations 8
GAMG:  Solving for p, Initial residual = 0.00798113, Final residual = 6.23416e-05, No Iterations 5
time step continuity errors : sum local = 1.92802e-05, global = -3.19651e-16, cumulative = 4.01737e-16
smoothSolver:  Solving for nuTilda, Initial residual = 0.00456936, Final residual = 2.20135e-05, No Iterations 8
ExecutionTime = 3.63 s  ClockTime = 3 s

Time = 37

smoothSolver:  Solving for Ux, Initial residual = 0.00331476, Final residual = 1.38929e-05, No Iterations 8
smoothSolver:  Solving for Uy, Initial residual = 0.00151065, Final residual = 7.38607e-06, No Iterations 8
GAMG:  Solving for p, Initial residual = 0.00662833, Final residual = 2.68161e-05, No Iterations 5
time step continuity errors : sum local = 8.25632e-06, global = -1.07847e-16, cumulative = 2.9389e-16
smoothSolver:  Solving for nuTilda, Initial residual = 0.00440423, Final residual = 2.12262e-05, No Iterations 8
ExecutionTime = 3.72 s  ClockTime = 4 s

Time = 38

smoothSolver:  Solving for Ux, Initial residual = 0.00322583, Final residual = 1.36716e-05, No Iterations 8
smoothSolver:  Solving for Uy, Initial residual = 0.00146997, Final residual = 7.10172e-06, No Iterations 8
GAMG:  Solving for p, Initial residual = 0.0059199, Final residual = 4.5908e-05, No Iterations 5
time step continuity errors : sum local = 1.4291e-05, global = -4.76183e-17, cumulative = 2.46272e-16
smoothSolver:  Solving for nuTilda, Initial residual = 0.00424052, Final residual = 2.04185e-05, No Iterations 8
ExecutionTime = 3.81 s  ClockTime = 4 s

Time = 39

smoothSolver:  Solving for Ux, Initial residual = 0.00302934, Final residual = 1.27389e-05, No Iterations 8
smoothSolver:  Solving for Uy, Initial residual = 0.00147997, Final residual = 7.26776e-06, No Iterations 8
GAMG:  Solving for p, Initial residual = 0.00548703, Final residual = 4.46572e-05, No Iterations 5
time step continuity errors : sum local = 1.38877e-05, global = -9.90338e-17, cumulative = 1.47238e-16
smoothSolver:  Solving for nuTilda, Initial residual = 0.00409412, Final residual = 1.97161e-05, No Iterations 8
ExecutionTime = 3.9 s  ClockTime = 4 s

Time = 40

smoothSolver:  Solving for Ux, Initial residual = 0.00284836, Final residual = 1.18527e-05, No Iterations 8
smoothSolver:  Solving for Uy, Initial residual = 0.00149857, Final residual = 7.45597e-06, No Iterations 8
GAMG:  Solving for p, Initial residual = 0.00457115, Final residual = 4.35018e-05, No Iterations 5
time step continuity errors : sum local = 1.34176e-05, global = 1.17407e-17, cumulative = 1.58978e-16
smoothSolver:  Solving for nuTilda, Initial residual = 0.00394961, Final residual = 1.90041e-05, No Iterations 8
ExecutionTime = 3.99 s  ClockTime = 4 s

forces wings output:
    sum of forces:
        pressure : (2.54977 -0.6906 2.85689e-19)
        viscous  : (0.405263 0.0519994 5.98008e-21)
        porous   : (0 0 0)
    sum of moments:
        pressure : (0.03453 0.127488 4.27259)
        viscous  : (-0.00259997 0.0202632 -0.0365419)
        porous   : (0 0 0)

Time = 41

smoothSolver:  Solving for Ux, Initial residual = 0.00279609, Final residual = 1.16485e-05, No Iterations 8
smoothSolver:  Solving for Uy, Initial residual = 0.00152481, Final residual = 7.57247e-06, No Iterations 8
GAMG:  Solving for p, Initial residual = 0.00423461, Final residual = 2.97177e-05, No Iterations 5
time step continuity errors : sum local = 9.24659e-06, global = 4.13724e-17, cumulative = 2.00351e-16
smoothSolver:  Solving for nuTilda, Initial residual = 0.00381757, Final residual = 1.83669e-05, No Iterations 8
ExecutionTime = 4.08 s  ClockTime = 4 s

Time = 42

smoothSolver:  Solving for Ux, Initial residual = 0.00282762, Final residual = 1.19352e-05, No Iterations 8
smoothSolver:  Solving for Uy, Initial residual = 0.00137859, Final residual = 6.94984e-06, No Iterations 8
GAMG:  Solving for p, Initial residual = 0.00403467, Final residual = 3.84299e-05, No Iterations 4
time step continuity errors : sum local = 1.18184e-05, global = 2.01752e-17, cumulative = 2.20526e-16
smoothSolver:  Solving for nuTilda, Initial residual = 0.00368819, Final residual = 1.77253e-05, No Iterations 8
ExecutionTime = 4.17 s  ClockTime = 4 s

Time = 43

smoothSolver:  Solving for Ux, Initial residual = 0.00283693, Final residual = 1.21068e-05, No Iterations 8
smoothSolver:  Solving for Uy, Initial residual = 0.0012517, Final residual = 6.40441e-06, No Iterations 8
GAMG:  Solving for p, Initial residual = 0.00350111, Final residual = 2.43414e-05, No Iterations 4
time step continuity errors : sum local = 7.46961e-06, global = -2.23779e-17, cumulative = 1.98148e-16
smoothSolver:  Solving for nuTilda, Initial residual = 0.00356988, Final residual = 1.71464e-05, No Iterations 8
ExecutionTime = 4.25 s  ClockTime = 4 s

Time = 44

smoothSolver:  Solving for Ux, Initial residual = 0.00279043, Final residual = 1.1971e-05, No Iterations 8
smoothSolver:  Solving for Uy, Initial residual = 0.00120699, Final residual = 6.19599e-06, No Iterations 8
GAMG:  Solving for p, Initial residual = 0.00313037, Final residual = 3.00511e-05, No Iterations 4
time step continuity errors : sum local = 9.19845e-06, global = 2.02383e-16, cumulative = 4.00531e-16
smoothSolver:  Solving for nuTilda, Initial residual = 0.00345427, Final residual = 1.65771e-05, No Iterations 8
ExecutionTime = 4.34 s  ClockTime = 4 s

Time = 45

smoothSolver:  Solving for Ux, Initial residual = 0.00270116, Final residual = 1.15813e-05, No Iterations 8
smoothSolver:  Solving for Uy, Initial residual = 0.0012134, Final residual = 6.26861e-06, No Iterations 8
GAMG:  Solving for p, Initial residual = 0.0029326, Final residual = 2.11031e-05, No Iterations 5
time step continuity errors : sum local = 6.57175e-06, global = 1.18623e-16, cumulative = 5.19155e-16
smoothSolver:  Solving for nuTilda, Initial residual = 0.00334803, Final residual = 1.60535e-05, No Iterations 8
ExecutionTime = 4.43 s  ClockTime = 4 s

forces wings output:
    sum of forces:
        pressure : (2.61517 -0.774227 2.97872e-19)
        viscous  : (0.39107 0.0498616 6.65904e-21)
        porous   : (0 0 0)
    sum of moments:
        pressure : (0.0387114 0.130758 4.34875)
        viscous  : (-0.00249308 0.0195535 -0.0353063)
        porous   : (0 0 0)

Time = 46

smoothSolver:  Solving for Ux, Initial residual = 0.00262749, Final residual = 1.12242e-05, No Iterations 8
smoothSolver:  Solving for Uy, Initial residual = 0.00126185, Final residual = 6.5126e-06, No Iterations 8
GAMG:  Solving for p, Initial residual = 0.00273366, Final residual = 2.1664e-05, No Iterations 5
time step continuity errors : sum local = 6.65803e-06, global = -1.65129e-16, cumulative = 3.54026e-16
smoothSolver:  Solving for nuTilda, Initial residual = 0.00324414, Final residual = 1.55444e-05, No Iterations 8
ExecutionTime = 4.53 s  ClockTime = 4 s

Time = 47

smoothSolver:  Solving for Ux, Initial residual = 0.00259763, Final residual = 1.10857e-05, No Iterations 8
smoothSolver:  Solving for Uy, Initial residual = 0.00127327, Final residual = 6.56043e-06, No Iterations 8
GAMG:  Solving for p, Initial residual = 0.00254994, Final residual = 1.87853e-05, No Iterations 5
time step continuity errors : sum local = 5.79651e-06, global = -2.40668e-17, cumulative = 3.29959e-16
smoothSolver:  Solving for nuTilda, Initial residual = 0.00314571, Final residual = 1.50685e-05, No Iterations 8
ExecutionTime = 4.61 s  ClockTime = 4 s

Time = 48

smoothSolver:  Solving for Ux, Initial residual = 0.00258557, Final residual = 1.10699e-05, No Iterations 8
smoothSolver:  Solving for Uy, Initial residual = 0.00124068, Final residual = 6.40871e-06, No Iterations 8
GAMG:  Solving for p, Initial residual = 0.00235235, Final residual = 1.6171e-05, No Iterations 5
time step continuity errors : sum local = 5.02409e-06, global = 1.41297e-17, cumulative = 3.44088e-16
smoothSolver:  Solving for nuTilda, Initial residual = 0.00305015, Final residual = 1.4611e-05, No Iterations 8
ExecutionTime = 4.7 s  ClockTime = 5 s

Time = 49

smoothSolver:  Solving for Ux, Initial residual = 0.00256539, Final residual = 1.10285e-05, No Iterations 8
smoothSolver:  Solving for Uy, Initial residual = 0.00119561, Final residual = 6.18938e-06, No Iterations 8
GAMG:  Solving for p, Initial residual = 0.00220674, Final residual = 1.86605e-05, No Iterations 4
time step continuity errors : sum local = 5.75842e-06, global = -9.17781e-17, cumulative = 2.5231e-16
smoothSolver:  Solving for nuTilda, Initial residual = 0.0029592, Final residual = 1.4177e-05, No Iterations 8
ExecutionTime = 4.79 s  ClockTime = 5 s

Time = 50

smoothSolver:  Solving for Ux, Initial residual = 0.00252954, Final residual = 1.08879e-05, No Iterations 8
smoothSolver:  Solving for Uy, Initial residual = 0.00117146, Final residual = 6.06076e-06, No Iterations 8
GAMG:  Solving for p, Initial residual = 0.00211273, Final residual = 1.68827e-05, No Iterations 4
time step continuity errors : sum local = 5.16154e-06, global = -3.89171e-17, cumulative = 2.13393e-16
smoothSolver:  Solving for nuTilda, Initial residual = 0.00287216, Final residual = 1.37597e-05, No Iterations 8
ExecutionTime = 4.88 s  ClockTime = 5 s

forces wings output:
    sum of forces:
        pressure : (2.74395 -1.29446 2.98303e-19)
        viscous  : (0.378008 0.0477695 7.43376e-21)
        porous   : (0 0 0)
    sum of moments:
        pressure : (0.0647228 0.137198 4.31835)
        viscous  : (-0.00238847 0.0189004 -0.0341744)
        porous   : (0 0 0)

Time = 51

smoothSolver:  Solving for Ux, Initial residual = 0.00248725, Final residual = 1.06889e-05, No Iterations 8
smoothSolver:  Solving for Uy, Initial residual = 0.00116785, Final residual = 6.04439e-06, No Iterations 8
GAMG:  Solving for p, Initial residual = 0.00197522, Final residual = 1.29686e-05, No Iterations 4
time step continuity errors : sum local = 3.97957e-06, global = 1.93919e-16, cumulative = 4.07312e-16
smoothSolver:  Solving for nuTilda, Initial residual = 0.00278964, Final residual = 1.33575e-05, No Iterations 8
ExecutionTime = 4.97 s  ClockTime = 5 s

Time = 52

smoothSolver:  Solving for Ux, Initial residual = 0.00245035, Final residual = 1.05065e-05, No Iterations 8
smoothSolver:  Solving for Uy, Initial residual = 0.00116961, Final residual = 6.05256e-06, No Iterations 8
GAMG:  Solving for p, Initial residual = 0.00187341, Final residual = 1.85106e-05, No Iterations 4
time step continuity errors : sum local = 5.67918e-06, global = -1.93622e-16, cumulative = 2.1369e-16
smoothSolver:  Solving for nuTilda, Initial residual = 0.00271072, Final residual = 1.29718e-05, No Iterations 8
ExecutionTime = 5.05 s  ClockTime = 5 s

Time = 53

smoothSolver:  Solving for Ux, Initial residual = 0.00242086, Final residual = 1.03711e-05, No Iterations 8
smoothSolver:  Solving for Uy, Initial residual = 0.00116608, Final residual = 6.02932e-06, No Iterations 8
GAMG:  Solving for p, Initial residual = 0.0018251, Final residual = 1.65853e-05, No Iterations 4
time step continuity errors : sum local = 5.0557e-06, global = 2.73384e-17, cumulative = 2.41028e-16
smoothSolver:  Solving for nuTilda, Initial residual = 0.0026351, Final residual = 1.26003e-05, No Iterations 8
ExecutionTime = 5.14 s  ClockTime = 5 s

Time = 54

smoothSolver:  Solving for Ux, Initial residual = 0.002392, Final residual = 1.02596e-05, No Iterations 8
smoothSolver:  Solving for Uy, Initial residual = 0.0011627, Final residual = 6.00475e-06, No Iterations 8
GAMG:  Solving for p, Initial residual = 0.00177073, Final residual = 1.51126e-05, No Iterations 4
time step continuity errors : sum local = 4.60714e-06, global = -2.21477e-16, cumulative = 1.9551e-17
smoothSolver:  Solving for nuTilda, Initial residual = 0.00256314, Final residual = 1.2245e-05, No Iterations 8
ExecutionTime = 5.23 s  ClockTime = 5 s

Time = 55

smoothSolver:  Solving for Ux, Initial residual = 0.00236114, Final residual = 1.01442e-05, No Iterations 8
smoothSolver:  Solving for Uy, Initial residual = 0.00115525, Final residual = 5.95539e-06, No Iterations 8
GAMG:  Solving for p, Initial residual = 0.00171237, Final residual = 1.37891e-05, No Iterations 4
time step continuity errors : sum local = 4.22343e-06, global = 1.56195e-16, cumulative = 1.75746e-16
smoothSolver:  Solving for nuTilda, Initial residual = 0.00249418, Final residual = 1.19036e-05, No Iterations 8
ExecutionTime = 5.31 s  ClockTime = 5 s

forces wings output:
    sum of forces:
        pressure : (2.76242 -1.36702 3.00487e-19)
        viscous  : (0.365281 0.0457501 6.76901e-21)
        porous   : (0 0 0)
    sum of moments:
        pressure : (0.0683511 0.138121 4.31501)
        viscous  : (-0.0022875 0.018264 -0.0330725)
        porous   : (0 0 0)

Time = 56

smoothSolver:  Solving for Ux, Initial residual = 0.00232985, Final residual = 1.00159e-05, No Iterations 8
smoothSolver:  Solving for Uy, Initial residual = 0.00114674, Final residual = 5.89705e-06, No Iterations 8
GAMG:  Solving for p, Initial residual = 0.00165811, Final residual = 1.35183e-05, No Iterations 4
time step continuity errors : sum local = 4.13835e-06, global = 1.9488e-16, cumulative = 3.70626e-16
smoothSolver:  Solving for nuTilda, Initial residual = 0.00242809, Final residual = 1.15791e-05, No Iterations 8
ExecutionTime = 5.41 s  ClockTime = 5 s

Time = 57

smoothSolver:  Solving for Ux, Initial residual = 0.00230291, Final residual = 9.89344e-06, No Iterations 8
smoothSolver:  Solving for Uy, Initial residual = 0.00113582, Final residual = 5.82554e-06, No Iterations 8
GAMG:  Solving for p, Initial residual = 0.00159514, Final residual = 1.08974e-05, No Iterations 4
time step continuity errors : sum local = 3.32878e-06, global = -5.78364e-17, cumulative = 3.12789e-16
smoothSolver:  Solving for nuTilda, Initial residual = 0.00236392, Final residual = 1.12632e-05, No Iterations 8
ExecutionTime = 5.5 s  ClockTime = 5 s

Time = 58

smoothSolver:  Solving for Ux, Initial residual = 0.00228006, Final residual = 9.78225e-06, No Iterations 8
smoothSolver:  Solving for Uy, Initial residual = 0.00112368, Final residual = 5.74711e-06, No Iterations 8
GAMG:  Solving for p, Initial residual = 0.0015326, Final residual = 8.22783e-06, No Iterations 4
time step continuity errors : sum local = 2.52506e-06, global = -6.04674e-18, cumulative = 3.06743e-16
smoothSolver:  Solving for nuTilda, Initial residual = 0.00230203, Final residual = 1.09586e-05, No Iterations 8
ExecutionTime = 5.6 s  ClockTime = 5 s

Time = 59

smoothSolver:  Solving for Ux, Initial residual = 0.00225726, Final residual = 9.675e-06, No Iterations 8
smoothSolver:  Solving for Uy, Initial residual = 0.00111296, Final residual = 5.67862e-06, No Iterations 8
GAMG:  Solving for p, Initial residual = 0.00147032, Final residual = 1.12696e-05, No Iterations 4
time step continuity errors : sum local = 3.44265e-06, global = 1.84309e-16, cumulative = 4.91051e-16
smoothSolver:  Solving for nuTilda, Initial residual = 0.00224242, Final residual = 1.06639e-05, No Iterations 8
ExecutionTime = 5.7 s  ClockTime = 6 s

Time = 60

smoothSolver:  Solving for Ux, Initial residual = 0.00223107, Final residual = 9.55971e-06, No Iterations 8
smoothSolver:  Solving for Uy, Initial residual = 0.00110888, Final residual = 5.64207e-06, No Iterations 8
GAMG:  Solving for p, Initial residual = 0.00142712, Final residual = 1.17275e-05, No Iterations 4
time step continuity errors : sum local = 3.57097e-06, global = -1.21709e-16, cumulative = 3.69343e-16
smoothSolver:  Solving for nuTilda, Initial residual = 0.00218532, Final residual = 1.03813e-05, No Iterations 8
ExecutionTime = 5.79 s  ClockTime = 6 s

forces wings output:
    sum of forces:
        pressure : (2.828 -1.52456 3.06948e-19)
        viscous  : (0.353074 0.0438046 5.886e-21)
        porous   : (0 0 0)
    sum of moments:
        pressure : (0.0762279 0.1414 4.354)
        viscous  : (-0.00219023 0.0176537 -0.0320163)
        porous   : (0 0 0)

Time = 61

smoothSolver:  Solving for Ux, Initial residual = 0.00220314, Final residual = 9.44016e-06, No Iterations 8
smoothSolver:  Solving for Uy, Initial residual = 0.001109, Final residual = 5.62568e-06, No Iterations 8
GAMG:  Solving for p, Initial residual = 0.00138245, Final residual = 9.93103e-06, No Iterations 4
time step continuity errors : sum local = 3.03464e-06, global = 1.99277e-16, cumulative = 5.6862e-16
smoothSolver:  Solving for nuTilda, Initial residual = 0.00213036, Final residual = 1.01086e-05, No Iterations 8
ExecutionTime = 5.88 s  ClockTime = 6 s

Time = 62

smoothSolver:  Solving for Ux, Initial residual = 0.00217672, Final residual = 9.32479e-06, No Iterations 8
smoothSolver:  Solving for Uy, Initial residual = 0.00110872, Final residual = 5.60524e-06, No Iterations 8
GAMG:  Solving for p, Initial residual = 0.00134266, Final residual = 9.96182e-06, No Iterations 4
time step continuity errors : sum local = 3.04055e-06, global = 9.31682e-17, cumulative = 6.61788e-16
smoothSolver:  Solving for nuTilda, Initial residual = 0.00207779, Final residual = 9.84768e-06, No Iterations 8
ExecutionTime = 5.97 s  ClockTime = 6 s

Time = 63

smoothSolver:  Solving for Ux, Initial residual = 0.00215389, Final residual = 9.21866e-06, No Iterations 8
smoothSolver:  Solving for Uy, Initial residual = 0.00110345, Final residual = 5.55903e-06, No Iterations 8
GAMG:  Solving for p, Initial residual = 0.00130091, Final residual = 1.06637e-05, No Iterations 4
time step continuity errors : sum local = 3.24925e-06, global = 2.78671e-16, cumulative = 9.40459e-16
smoothSolver:  Solving for nuTilda, Initial residual = 0.00202677, Final residual = 9.59495e-06, No Iterations 8
ExecutionTime = 6.05 s  ClockTime = 6 s

Time = 64

smoothSolver:  Solving for Ux, Initial residual = 0.00213445, Final residual = 9.12214e-06, No Iterations 8
smoothSolver:  Solving for Uy, Initial residual = 0.00109323, Final residual = 5.48965e-06, No Iterations 8
GAMG:  Solving for p, Initial residual = 0.00126304, Final residual = 9.28434e-06, No Iterations 4
time step continuity errors : sum local = 2.82895e-06, global = -1.67402e-16, cumulative = 7.73057e-16
smoothSolver:  Solving for nuTilda, Initial residual = 0.00197748, Final residual = 9.35182e-06, No Iterations 8
ExecutionTime = 6.13 s  ClockTime = 6 s

Time = 65

smoothSolver:  Solving for Ux, Initial residual = 0.00211624, Final residual = 9.03067e-06, No Iterations 8
smoothSolver:  Solving for Uy, Initial residual = 0.00108153, Final residual = 5.41492e-06, No Iterations 8
GAMG:  Solving for p, Initial residual = 0.00122391, Final residual = 7.47399e-06, No Iterations 4
time step continuity errors : sum local = 2.28469e-06, global = -1.20085e-16, cumulative = 6.52972e-16
smoothSolver:  Solving for nuTilda, Initial residual = 0.00192989, Final residual = 9.11668e-06, No Iterations 8
ExecutionTime = 6.22 s  ClockTime = 6 s

forces wings output:
    sum of forces:
        pressure : (2.92148 -1.82405 3.11945e-19)
        viscous  : (0.341481 0.0419665 5.97895e-21)
        porous   : (0 0 0)
    sum of moments:
        pressure : (0.0912026 0.146074 4.37156)
        viscous  : (-0.00209832 0.017074 -0.0310099)
        porous   : (0 0 0)

Time = 66

smoothSolver:  Solving for Ux, Initial residual = 0.00209685, Final residual = 8.93672e-06, No Iterations 8
smoothSolver:  Solving for Uy, Initial residual = 0.00107226, Final residual = 5.35312e-06, No Iterations 8
GAMG:  Solving for p, Initial residual = 0.00119553, Final residual = 9.0145e-06, No Iterations 4
time step continuity errors : sum local = 2.75504e-06, global = 1.06328e-16, cumulative = 7.59301e-16
smoothSolver:  Solving for nuTilda, Initial residual = 0.00188413, Final residual = 8.89011e-06, No Iterations 8
ExecutionTime = 6.31 s  ClockTime = 6 s

Time = 67

smoothSolver:  Solving for Ux, Initial residual = 0.00207472, Final residual = 8.83281e-06, No Iterations 8
smoothSolver:  Solving for Uy, Initial residual = 0.00106836, Final residual = 5.31458e-06, No Iterations 8
GAMG:  Solving for p, Initial residual = 0.00116403, Final residual = 9.28667e-06, No Iterations 4
time step continuity errors : sum local = 2.83549e-06, global = 2.646e-16, cumulative = 1.0239e-15
smoothSolver:  Solving for nuTilda, Initial residual = 0.00183994, Final residual = 8.67079e-06, No Iterations 8
ExecutionTime = 6.4 s  ClockTime = 6 s

Time = 68

smoothSolver:  Solving for Ux, Initial residual = 0.00205267, Final residual = 8.73027e-06, No Iterations 8
smoothSolver:  Solving for Uy, Initial residual = 0.00106656, Final residual = 5.28521e-06, No Iterations 8
GAMG:  Solving for p, Initial residual = 0.00113932, Final residual = 9.18042e-06, No Iterations 4
time step continuity errors : sum local = 2.77462e-06, global = 2.90992e-17, cumulative = 1.053e-15
smoothSolver:  Solving for nuTilda, Initial residual = 0.00179721, Final residual = 8.45956e-06, No Iterations 8
ExecutionTime = 6.48 s  ClockTime = 6 s

Time = 69

smoothSolver:  Solving for Ux, Initial residual = 0.00203227, Final residual = 8.63346e-06, No Iterations 8
smoothSolver:  Solving for Uy, Initial residual = 0.0010638, Final residual = 5.25091e-06, No Iterations 8
GAMG:  Solving for p, Initial residual = 0.00111621, Final residual = 8.85093e-06, No Iterations 4
time step continuity errors : sum local = 2.67627e-06, global = -5.86147e-17, cumulative = 9.94386e-16
smoothSolver:  Solving for nuTilda, Initial residual = 0.0017559, Final residual = 8.25594e-06, No Iterations 8
ExecutionTime = 6.56 s  ClockTime = 6 s

Time = 70

smoothSolver:  Solving for Ux, Initial residual = 0.00201415, Final residual = 8.54338e-06, No Iterations 8
smoothSolver:  Solving for Uy, Initial residual = 0.0010577, Final residual = 5.20089e-06, No Iterations 8
GAMG:  Solving for p, Initial residual = 0.0010955, Final residual = 8.50656e-06, No Iterations 4
time step continuity errors : sum local = 2.58633e-06, global = -8.31074e-17, cumulative = 9.11278e-16
smoothSolver:  Solving for nuTilda, Initial residual = 0.00171605, Final residual = 8.05965e-06, No Iterations 8
ExecutionTime = 6.65 s  ClockTime = 7 s

forces wings output:
    sum of forces:
        pressure : (2.98667 -2.02688 3.16723e-19)
        viscous  : (0.330356 0.0402001 8.05917e-21)
        porous   : (0 0 0)
    sum of moments:
        pressure : (0.101344 0.149333 4.38686)
        viscous  : (-0.00201001 0.0165178 -0.0300466)
        porous   : (0 0 0)

Time = 71

smoothSolver:  Solving for Ux, Initial residual = 0.00199727, Final residual = 8.45637e-06, No Iterations 8
smoothSolver:  Solving for Uy, Initial residual = 0.00104915, Final residual = 5.13945e-06, No Iterations 8
GAMG:  Solving for p, Initial residual = 0.00107261, Final residual = 7.8852e-06, No Iterations 4
time step continuity errors : sum local = 2.40615e-06, global = 9.31202e-17, cumulative = 1.0044e-15
smoothSolver:  Solving for nuTilda, Initial residual = 0.00167725, Final residual = 7.8679e-06, No Iterations 8
ExecutionTime = 6.73 s  ClockTime = 7 s

Time = 72

smoothSolver:  Solving for Ux, Initial residual = 0.0019797, Final residual = 8.36685e-06, No Iterations 8
smoothSolver:  Solving for Uy, Initial residual = 0.00104178, Final residual = 5.08304e-06, No Iterations 8
GAMG:  Solving for p, Initial residual = 0.00105533, Final residual = 6.93967e-06, No Iterations 4
time step continuity errors : sum local = 2.12396e-06, global = 8.95744e-17, cumulative = 1.09397e-15
smoothSolver:  Solving for nuTilda, Initial residual = 0.00163975, Final residual = 7.68303e-06, No Iterations 8
ExecutionTime = 6.82 s  ClockTime = 7 s

Time = 73

smoothSolver:  Solving for Ux, Initial residual = 0.00196227, Final residual = 8.27976e-06, No Iterations 8
smoothSolver:  Solving for Uy, Initial residual = 0.00103485, Final residual = 5.02947e-06, No Iterations 8
GAMG:  Solving for p, Initial residual = 0.00103756, Final residual = 7.21784e-06, No Iterations 4
time step continuity errors : sum local = 2.20732e-06, global = 8.3317e-17, cumulative = 1.17729e-15
smoothSolver:  Solving for nuTilda, Initial residual = 0.00160352, Final residual = 7.50473e-06, No Iterations 8
ExecutionTime = 6.9 s  ClockTime = 7 s

Time = 74

smoothSolver:  Solving for Ux, Initial residual = 0.00194476, Final residual = 8.19304e-06, No Iterations 8
smoothSolver:  Solving for Uy, Initial residual = 0.00102895, Final residual = 4.9804e-06, No Iterations 8
GAMG:  Solving for p, Initial residual = 0.00102122, Final residual = 7.25078e-06, No Iterations 4
time step continuity errors : sum local = 2.21626e-06, global = -2.36651e-16, cumulative = 9.40639e-16
smoothSolver:  Solving for nuTilda, Initial residual = 0.00156852, Final residual = 7.33289e-06, No Iterations 8
ExecutionTime = 6.99 s  ClockTime = 7 s

Time = 75

smoothSolver:  Solving for Ux, Initial residual = 0.00192752, Final residual = 8.10812e-06, No Iterations 8
smoothSolver:  Solving for Uy, Initial residual = 0.0010235, Final residual = 4.93324e-06, No Iterations 8
GAMG:  Solving for p, Initial residual = 0.00100326, Final residual = 7.11302e-06, No Iterations 4
time step continuity errors : sum local = 2.16366e-06, global = -3.91267e-18, cumulative = 9.36726e-16
smoothSolver:  Solving for nuTilda, Initial residual = 0.00153454, Final residual = 7.16626e-06, No Iterations 8
ExecutionTime = 7.07 s  ClockTime = 7 s

forces wings output:
    sum of forces:
        pressure : (3.06172 -2.23394 3.22714e-19)
        viscous  : (0.319775 0.0385302 9.13318e-21)
        porous   : (0 0 0)
    sum of moments:
        pressure : (0.111697 0.153086 4.4179)
        viscous  : (-0.00192651 0.0159887 -0.0291267)
        porous   : (0 0 0)

Time = 76

smoothSolver:  Solving for Ux, Initial residual = 0.00191083, Final residual = 8.02531e-06, No Iterations 8
smoothSolver:  Solving for Uy, Initial residual = 0.00101779, Final residual = 4.88505e-06, No Iterations 8
GAMG:  Solving for p, Initial residual = 0.000987585, Final residual = 7.47798e-06, No Iterations 4
time step continuity errors : sum local = 2.28497e-06, global = -1.38548e-16, cumulative = 7.98178e-16
smoothSolver:  Solving for nuTilda, Initial residual = 0.00150159, Final residual = 7.00482e-06, No Iterations 8
ExecutionTime = 7.16 s  ClockTime = 7 s

Time = 77

smoothSolver:  Solving for Ux, Initial residual = 0.00189444, Final residual = 7.9428e-06, No Iterations 8
smoothSolver:  Solving for Uy, Initial residual = 0.00101198, Final residual = 4.83608e-06, No Iterations 8
GAMG:  Solving for p, Initial residual = 0.000971993, Final residual = 7.33316e-06, No Iterations 4
time step continuity errors : sum local = 2.22317e-06, global = 1.34006e-16, cumulative = 9.32184e-16
smoothSolver:  Solving for nuTilda, Initial residual = 0.00146957, Final residual = 6.84805e-06, No Iterations 8
ExecutionTime = 7.25 s  ClockTime = 7 s

Time = 78

smoothSolver:  Solving for Ux, Initial residual = 0.00187886, Final residual = 7.86363e-06, No Iterations 8
smoothSolver:  Solving for Uy, Initial residual = 0.00100512, Final residual = 4.78325e-06, No Iterations 8
GAMG:  Solving for p, Initial residual = 0.000958882, Final residual = 7.22554e-06, No Iterations 4
time step continuity errors : sum local = 2.20971e-06, global = 8.01718e-17, cumulative = 1.01236e-15
smoothSolver:  Solving for nuTilda, Initial residual = 0.0014385, Final residual = 6.69607e-06, No Iterations 8
ExecutionTime = 7.34 s  ClockTime = 7 s

Time = 79

smoothSolver:  Solving for Ux, Initial residual = 0.00186342, Final residual = 7.78462e-06, No Iterations 8
smoothSolver:  Solving for Uy, Initial residual = 0.000998531, Final residual = 4.73172e-06, No Iterations 8
GAMG:  Solving for p, Initial residual = 0.000945824, Final residual = 7.51811e-06, No Iterations 4
time step continuity errors : sum local = 2.29713e-06, global = 3.72141e-17, cumulative = 1.04957e-15
smoothSolver:  Solving for nuTilda, Initial residual = 0.00140834, Final residual = 6.54833e-06, No Iterations 8
ExecutionTime = 7.42 s  ClockTime = 7 s

Time = 80

smoothSolver:  Solving for Ux, Initial residual = 0.00184818, Final residual = 7.70659e-06, No Iterations 8
smoothSolver:  Solving for Uy, Initial residual = 0.000991847, Final residual = 4.68058e-06, No Iterations 8
GAMG:  Solving for p, Initial residual = 0.000933935, Final residual = 7.3516e-06, No Iterations 4
time step continuity errors : sum local = 2.24554e-06, global = 1.4329e-16, cumulative = 1.19286e-15
smoothSolver:  Solving for nuTilda, Initial residual = 0.00137903, Final residual = 6.40469e-06, No Iterations 8
ExecutionTime = 7.5 s  ClockTime = 7 s

forces wings output:
    sum of forces:
        pressure : (3.13531 -2.44024 3.27538e-19)
        viscous  : (0.309704 0.0369477 1.0064e-20)
        porous   : (0 0 0)
    sum of moments:
        pressure : (0.122012 0.156765 4.44668)
        viscous  : (-0.00184738 0.0154852 -0.0282496)
        porous   : (0 0 0)

Time = 81

smoothSolver:  Solving for Ux, Initial residual = 0.00183323, Final residual = 7.63058e-06, No Iterations 8
smoothSolver:  Solving for Uy, Initial residual = 0.000985092, Final residual = 4.62938e-06, No Iterations 8
GAMG:  Solving for p, Initial residual = 0.000921483, Final residual = 6.91066e-06, No Iterations 4
time step continuity errors : sum local = 2.11652e-06, global = -9.91364e-17, cumulative = 1.09372e-15
smoothSolver:  Solving for nuTilda, Initial residual = 0.0013505, Final residual = 6.2648e-06, No Iterations 8
ExecutionTime = 7.59 s  ClockTime = 7 s

Time = 82

smoothSolver:  Solving for Ux, Initial residual = 0.0018185, Final residual = 7.55601e-06, No Iterations 8
smoothSolver:  Solving for Uy, Initial residual = 0.000978281, Final residual = 4.57782e-06, No Iterations 8
GAMG:  Solving for p, Initial residual = 0.000909572, Final residual = 7.0982e-06, No Iterations 4
time step continuity errors : sum local = 2.17261e-06, global = -9.54407e-17, cumulative = 9.98282e-16
smoothSolver:  Solving for nuTilda, Initial residual = 0.00132281, Final residual = 6.12947e-06, No Iterations 8
ExecutionTime = 7.68 s  ClockTime = 8 s

Time = 83

smoothSolver:  Solving for Ux, Initial residual = 0.00180363, Final residual = 7.48075e-06, No Iterations 8
smoothSolver:  Solving for Uy, Initial residual = 0.000971964, Final residual = 4.52841e-06, No Iterations 8
GAMG:  Solving for p, Initial residual = 0.000896825, Final residual = 7.15521e-06, No Iterations 4
time step continuity errors : sum local = 2.18931e-06, global = -1.34082e-16, cumulative = 8.64201e-16
smoothSolver:  Solving for nuTilda, Initial residual = 0.00129593, Final residual = 5.99846e-06, No Iterations 8
ExecutionTime = 7.76 s  ClockTime = 8 s

Time = 84

smoothSolver:  Solving for Ux, Initial residual = 0.00178902, Final residual = 7.40681e-06, No Iterations 8
smoothSolver:  Solving for Uy, Initial residual = 0.000965683, Final residual = 4.47967e-06, No Iterations 8
GAMG:  Solving for p, Initial residual = 0.000885668, Final residual = 7.5218e-06, No Iterations 4
time step continuity errors : sum local = 2.29954e-06, global = -9.07355e-18, cumulative = 8.55127e-16
smoothSolver:  Solving for nuTilda, Initial residual = 0.0012698, Final residual = 5.8714e-06, No Iterations 8
ExecutionTime = 7.85 s  ClockTime = 8 s

Time = 85

smoothSolver:  Solving for Ux, Initial residual = 0.00177464, Final residual = 7.334e-06, No Iterations 8
smoothSolver:  Solving for Uy, Initial residual = 0.000959316, Final residual = 4.431e-06, No Iterations 8
GAMG:  Solving for p, Initial residual = 0.000874354, Final residual = 7.36582e-06, No Iterations 4
time step continuity errors : sum local = 2.25121e-06, global = -1.3265e-16, cumulative = 7.22477e-16
smoothSolver:  Solving for nuTilda, Initial residual = 0.0012443, Final residual = 5.74734e-06, No Iterations 8
ExecutionTime = 7.93 s  ClockTime = 8 s

forces wings output:
    sum of forces:
        pressure : (3.20634 -2.6399 3.31571e-19)
        viscous  : (0.300179 0.0354423 1.10586e-20)
        porous   : (0 0 0)
    sum of moments:
        pressure : (0.131995 0.160317 4.47419)
        viscous  : (-0.00177212 0.015009 -0.0274184)
        porous   : (0 0 0)

Time = 86

smoothSolver:  Solving for Ux, Initial residual = 0.00176072, Final residual = 7.26375e-06, No Iterations 8
smoothSolver:  Solving for Uy, Initial residual = 0.000952395, Final residual = 4.38065e-06, No Iterations 8
GAMG:  Solving for p, Initial residual = 0.000864175, Final residual = 7.20869e-06, No Iterations 4
time step continuity errors : sum local = 2.20525e-06, global = 2.41339e-16, cumulative = 9.63816e-16
smoothSolver:  Solving for nuTilda, Initial residual = 0.00121946, Final residual = 5.62613e-06, No Iterations 8
ExecutionTime = 8.02 s  ClockTime = 8 s

Time = 87

smoothSolver:  Solving for Ux, Initial residual = 0.00174697, Final residual = 7.19474e-06, No Iterations 8
smoothSolver:  Solving for Uy, Initial residual = 0.000945212, Final residual = 4.32927e-06, No Iterations 8
GAMG:  Solving for p, Initial residual = 0.000852554, Final residual = 7.02437e-06, No Iterations 4
time step continuity errors : sum local = 2.14811e-06, global = -2.13274e-17, cumulative = 9.42489e-16
smoothSolver:  Solving for nuTilda, Initial residual = 0.00119532, Final residual = 5.50759e-06, No Iterations 8
ExecutionTime = 8.1 s  ClockTime = 8 s

Time = 88

smoothSolver:  Solving for Ux, Initial residual = 0.0017333, Final residual = 7.12599e-06, No Iterations 8
smoothSolver:  Solving for Uy, Initial residual = 0.000938057, Final residual = 4.27828e-06, No Iterations 8
GAMG:  Solving for p, Initial residual = 0.000841529, Final residual = 6.76819e-06, No Iterations 4
time step continuity errors : sum local = 2.07211e-06, global = 2.79196e-16, cumulative = 1.22169e-15
smoothSolver:  Solving for nuTilda, Initial residual = 0.00117183, Final residual = 5.39199e-06, No Iterations 8
ExecutionTime = 8.18 s  ClockTime = 8 s

Time = 89

smoothSolver:  Solving for Ux, Initial residual = 0.00171956, Final residual = 7.05753e-06, No Iterations 8
smoothSolver:  Solving for Uy, Initial residual = 0.000931124, Final residual = 4.22825e-06, No Iterations 8
GAMG:  Solving for p, Initial residual = 0.00082941, Final residual = 6.7316e-06, No Iterations 4
time step continuity errors : sum local = 2.05927e-06, global = 2.63715e-16, cumulative = 1.4854e-15
smoothSolver:  Solving for nuTilda, Initial residual = 0.0011489, Final residual = 5.27908e-06, No Iterations 8
ExecutionTime = 8.27 s  ClockTime = 8 s

Time = 90

smoothSolver:  Solving for Ux, Initial residual = 0.00170593, Final residual = 6.98996e-06, No Iterations 8
smoothSolver:  Solving for Uy, Initial residual = 0.000924358, Final residual = 4.17957e-06, No Iterations 8
GAMG:  Solving for p, Initial residual = 0.000818664, Final residual = 6.57189e-06, No Iterations 4
time step continuity errors : sum local = 2.01212e-06, global = 1.26129e-16, cumulative = 1.61153e-15
smoothSolver:  Solving for nuTilda, Initial residual = 0.00112649, Final residual = 5.16882e-06, No Iterations 8
ExecutionTime = 8.35 s  ClockTime = 8 s

forces wings output:
    sum of forces:
        pressure : (3.27675 -2.8339 3.35339e-19)
        viscous  : (0.291479 0.034043 1.05875e-20)
        porous   : (0 0 0)
    sum of moments:
        pressure : (0.141695 0.163838 4.50344)
        viscous  : (-0.00170215 0.014574 -0.0266629)
        porous   : (0 0 0)

Time = 91

smoothSolver:  Solving for Ux, Initial residual = 0.00169246, Final residual = 6.92361e-06, No Iterations 8
smoothSolver:  Solving for Uy, Initial residual = 0.000917571, Final residual = 4.13111e-06, No Iterations 8
GAMG:  Solving for p, Initial residual = 0.000807292, Final residual = 6.65642e-06, No Iterations 4
time step continuity errors : sum local = 2.03565e-06, global = 4.11464e-16, cumulative = 2.02299e-15
smoothSolver:  Solving for nuTilda, Initial residual = 0.00110458, Final residual = 5.06155e-06, No Iterations 8
ExecutionTime = 8.44 s  ClockTime = 8 s

Time = 92

smoothSolver:  Solving for Ux, Initial residual = 0.00167924, Final residual = 6.85836e-06, No Iterations 8
smoothSolver:  Solving for Uy, Initial residual = 0.000910705, Final residual = 4.08293e-06, No Iterations 8
GAMG:  Solving for p, Initial residual = 0.000796913, Final residual = 6.34993e-06, No Iterations 4
time step continuity errors : sum local = 1.94518e-06, global = 6.7727e-17, cumulative = 2.09072e-15
smoothSolver:  Solving for nuTilda, Initial residual = 0.00108314, Final residual = 4.95765e-06, No Iterations 8
ExecutionTime = 8.52 s  ClockTime = 8 s

Time = 93

smoothSolver:  Solving for Ux, Initial residual = 0.00166615, Final residual = 6.79422e-06, No Iterations 8
smoothSolver:  Solving for Uy, Initial residual = 0.000903602, Final residual = 4.03413e-06, No Iterations 8
GAMG:  Solving for p, Initial residual = 0.000785473, Final residual = 6.414e-06, No Iterations 4
time step continuity errors : sum local = 1.96201e-06, global = 1.45486e-16, cumulative = 2.23621e-15
smoothSolver:  Solving for nuTilda, Initial residual = 0.00106219, Final residual = 4.85694e-06, No Iterations 8
ExecutionTime = 8.6 s  ClockTime = 8 s

Time = 94

smoothSolver:  Solving for Ux, Initial residual = 0.00165317, Final residual = 6.73056e-06, No Iterations 8
smoothSolver:  Solving for Uy, Initial residual = 0.000896492, Final residual = 3.98559e-06, No Iterations 8
GAMG:  Solving for p, Initial residual = 0.000774747, Final residual = 6.02958e-06, No Iterations 4
time step continuity errors : sum local = 1.84896e-06, global = -1.2176e-16, cumulative = 2.11445e-15
smoothSolver:  Solving for nuTilda, Initial residual = 0.00104174, Final residual = 4.75924e-06, No Iterations 8
ExecutionTime = 8.69 s  ClockTime = 9 s

Time = 95

smoothSolver:  Solving for Ux, Initial residual = 0.00164018, Final residual = 6.6675e-06, No Iterations 8
smoothSolver:  Solving for Uy, Initial residual = 0.00088936, Final residual = 3.93722e-06, No Iterations 8
GAMG:  Solving for p, Initial residual = 0.000763137, Final residual = 6.05968e-06, No Iterations 4
time step continuity errors : sum local = 1.85589e-06, global = 2.09096e-16, cumulative = 2.32354e-15
smoothSolver:  Solving for nuTilda, Initial residual = 0.0010218, Final residual = 4.66413e-06, No Iterations 8
ExecutionTime = 8.77 s  ClockTime = 9 s

forces wings output:
    sum of forces:
        pressure : (3.34422 -3.02332 3.37867e-19)
        viscous  : (0.283727 0.032766 9.58218e-21)
        porous   : (0 0 0)
    sum of moments:
        pressure : (0.151166 0.167211 4.52967)
        viscous  : (-0.0016383 0.0141864 -0.0259908)
        porous   : (0 0 0)

Time = 96

smoothSolver:  Solving for Ux, Initial residual = 0.00162731, Final residual = 6.60515e-06, No Iterations 8
smoothSolver:  Solving for Uy, Initial residual = 0.000882363, Final residual = 3.89012e-06, No Iterations 8
GAMG:  Solving for p, Initial residual = 0.000752567, Final residual = 5.76725e-06, No Iterations 4
time step continuity errors : sum local = 1.77064e-06, global = -4.43586e-19, cumulative = 2.3231e-15
smoothSolver:  Solving for nuTilda, Initial residual = 0.00100236, Final residual = 4.57135e-06, No Iterations 8
ExecutionTime = 8.86 s  ClockTime = 9 s

Time = 97

smoothSolver:  Solving for Ux, Initial residual = 0.00161445, Final residual = 6.54334e-06, No Iterations 8
smoothSolver:  Solving for Uy, Initial residual = 0.000875399, Final residual = 3.84377e-06, No Iterations 8
GAMG:  Solving for p, Initial residual = 0.000741216, Final residual = 5.85651e-06, No Iterations 4
time step continuity errors : sum local = 1.7956e-06, global = -7.7246e-17, cumulative = 2.24585e-15
smoothSolver:  Solving for nuTilda, Initial residual = 0.000983385, Final residual = 4.48041e-06, No Iterations 8
ExecutionTime = 8.95 s  ClockTime = 9 s

Time = 98

smoothSolver:  Solving for Ux, Initial residual = 0.00160181, Final residual = 6.48241e-06, No Iterations 8
smoothSolver:  Solving for Uy, Initial residual = 0.000868533, Final residual = 3.79812e-06, No Iterations 8
GAMG:  Solving for p, Initial residual = 0.000731341, Final residual = 5.56112e-06, No Iterations 4
time step continuity errors : sum local = 1.6774e-06, global = -8.13824e-17, cumulative = 2.16447e-15
smoothSolver:  Solving for nuTilda, Initial residual = 0.000964867, Final residual = 4.39138e-06, No Iterations 8
ExecutionTime = 9.03 s  ClockTime = 9 s

Time = 99

smoothSolver:  Solving for Ux, Initial residual = 0.00158922, Final residual = 6.42214e-06, No Iterations 8
smoothSolver:  Solving for Uy, Initial residual = 0.000861506, Final residual = 3.75202e-06, No Iterations 8
GAMG:  Solving for p, Initial residual = 0.000720231, Final residual = 5.48151e-06, No Iterations 4
time step continuity errors : sum local = 1.65383e-06, global = -5.82417e-18, cumulative = 2.15865e-15
smoothSolver:  Solving for nuTilda, Initial residual = 0.0009468, Final residual = 4.30435e-06, No Iterations 8
ExecutionTime = 9.11 s  ClockTime = 9 s

Time = 100

smoothSolver:  Solving for Ux, Initial residual = 0.00157674, Final residual = 6.36216e-06, No Iterations 8
smoothSolver:  Solving for Uy, Initial residual = 0.000854629, Final residual = 3.70694e-06, No Iterations 8
GAMG:  Solving for p, Initial residual = 0.000710445, Final residual = 5.51785e-06, No Iterations 4
time step continuity errors : sum local = 1.69736e-06, global = -3.50374e-17, cumulative = 2.12361e-15
smoothSolver:  Solving for nuTilda, Initial residual = 0.000929161, Final residual = 4.21951e-06, No Iterations 8
ExecutionTime = 9.2 s  ClockTime = 9 s

forces wings output:
    sum of forces:
        pressure : (3.40598 -3.19987 3.39797e-19)
        viscous  : (0.276615 0.0315882 7.72566e-21)
        porous   : (0 0 0)
    sum of moments:
        pressure : (0.159994 0.170299 4.55209)
        viscous  : (-0.00157941 0.0138307 -0.0253734)
        porous   : (0 0 0)

Time = 101

smoothSolver:  Solving for Ux, Initial residual = 0.00156422, Final residual = 6.30222e-06, No Iterations 8
smoothSolver:  Solving for Uy, Initial residual = 0.000847933, Final residual = 3.66335e-06, No Iterations 8
GAMG:  Solving for p, Initial residual = 0.000699468, Final residual = 5.56073e-06, No Iterations 4
time step continuity errors : sum local = 1.70641e-06, global = -9.84151e-17, cumulative = 2.02519e-15
smoothSolver:  Solving for nuTilda, Initial residual = 0.000911934, Final residual = 4.13675e-06, No Iterations 8
ExecutionTime = 9.28 s  ClockTime = 9 s

Time = 102

smoothSolver:  Solving for Ux, Initial residual = 0.00155188, Final residual = 6.24355e-06, No Iterations 8
smoothSolver:  Solving for Uy, Initial residual = 0.000841133, Final residual = 3.61975e-06, No Iterations 8
GAMG:  Solving for p, Initial residual = 0.000690151, Final residual = 5.30754e-06, No Iterations 4
time step continuity errors : sum local = 1.60187e-06, global = -5.59357e-17, cumulative = 1.96926e-15
smoothSolver:  Solving for nuTilda, Initial residual = 0.000895087, Final residual = 4.05599e-06, No Iterations 8
ExecutionTime = 9.37 s  ClockTime = 9 s

Time = 103

smoothSolver:  Solving for Ux, Initial residual = 0.00153957, Final residual = 6.18562e-06, No Iterations 8
smoothSolver:  Solving for Uy, Initial residual = 0.000833889, Final residual = 3.57482e-06, No Iterations 8
GAMG:  Solving for p, Initial residual = 0.000679031, Final residual = 5.25487e-06, No Iterations 4
time step continuity errors : sum local = 1.59686e-06, global = -6.53325e-17, cumulative = 1.90393e-15
smoothSolver:  Solving for nuTilda, Initial residual = 0.000878614, Final residual = 3.97709e-06, No Iterations 8
ExecutionTime = 9.45 s  ClockTime = 9 s

Time = 104

smoothSolver:  Solving for Ux, Initial residual = 0.00152732, Final residual = 6.12787e-06, No Iterations 8
smoothSolver:  Solving for Uy, Initial residual = 0.000826883, Final residual = 3.53125e-06, No Iterations 8
GAMG:  Solving for p, Initial residual = 0.000669753, Final residual = 5.21783e-06, No Iterations 4
time step continuity errors : sum local = 1.60644e-06, global = -1.97527e-16, cumulative = 1.7064e-15
smoothSolver:  Solving for nuTilda, Initial residual = 0.000862495, Final residual = 3.89998e-06, No Iterations 8
ExecutionTime = 9.53 s  ClockTime = 9 s

Time = 105

smoothSolver:  Solving for Ux, Initial residual = 0.00151515, Final residual = 6.07033e-06, No Iterations 8
smoothSolver:  Solving for Uy, Initial residual = 0.000820126, Final residual = 3.48939e-06, No Iterations 8
GAMG:  Solving for p, Initial residual = 0.000659038, Final residual = 5.22736e-06, No Iterations 4
time step continuity errors : sum local = 1.60635e-06, global = 2.6462e-17, cumulative = 1.73286e-15
smoothSolver:  Solving for nuTilda, Initial residual = 0.000846722, Final residual = 3.82456e-06, No Iterations 8
ExecutionTime = 9.62 s  ClockTime = 9 s

forces wings output:
    sum of forces:
        pressure : (3.46406 -3.36988 3.40412e-19)
        viscous  : (0.269943 0.0304829 6.85996e-21)
        porous   : (0 0 0)
    sum of moments:
        pressure : (0.168494 0.173203 4.57115)
        viscous  : (-0.00152415 0.0134971 -0.0247932)
        porous   : (0 0 0)

Time = 106

smoothSolver:  Solving for Ux, Initial residual = 0.00150315, Final residual = 6.01374e-06, No Iterations 8
smoothSolver:  Solving for Uy, Initial residual = 0.000813562, Final residual = 3.44823e-06, No Iterations 8
GAMG:  Solving for p, Initial residual = 0.000650364, Final residual = 5.1166e-06, No Iterations 4
time step continuity errors : sum local = 1.55463e-06, global = 1.28546e-16, cumulative = 1.86141e-15
smoothSolver:  Solving for nuTilda, Initial residual = 0.000831299, Final residual = 3.75086e-06, No Iterations 8
ExecutionTime = 9.71 s  ClockTime = 10 s

Time = 107

smoothSolver:  Solving for Ux, Initial residual = 0.0014911, Final residual = 5.95721e-06, No Iterations 8
smoothSolver:  Solving for Uy, Initial residual = 0.000806655, Final residual = 3.40657e-06, No Iterations 8
GAMG:  Solving for p, Initial residual = 0.00064038, Final residual = 5.12496e-06, No Iterations 4
time step continuity errors : sum local = 1.55456e-06, global = 6.28774e-17, cumulative = 1.92428e-15
smoothSolver:  Solving for nuTilda, Initial residual = 0.000816228, Final residual = 3.6789e-06, No Iterations 8
ExecutionTime = 9.79 s  ClockTime = 10 s

Time = 108

smoothSolver:  Solving for Ux, Initial residual = 0.00147919, Final residual = 5.90085e-06, No Iterations 8
smoothSolver:  Solving for Uy, Initial residual = 0.000799897, Final residual = 3.36597e-06, No Iterations 8
GAMG:  Solving for p, Initial residual = 0.000631165, Final residual = 5.10512e-06, No Iterations 4
time step continuity errors : sum local = 1.54041e-06, global = 2.26784e-16, cumulative = 2.15107e-15
smoothSolver:  Solving for nuTilda, Initial residual = 0.000801517, Final residual = 3.60874e-06, No Iterations 8
ExecutionTime = 9.88 s  ClockTime = 10 s

Time = 109

smoothSolver:  Solving for Ux, Initial residual = 0.00146733, Final residual = 5.84479e-06, No Iterations 8
smoothSolver:  Solving for Uy, Initial residual = 0.000793165, Final residual = 3.32623e-06, No Iterations 8
GAMG:  Solving for p, Initial residual = 0.000622862, Final residual = 5.06195e-06, No Iterations 4
time step continuity errors : sum local = 1.52689e-06, global = -4.39556e-17, cumulative = 2.10711e-15
smoothSolver:  Solving for nuTilda, Initial residual = 0.00078716, Final residual = 3.54034e-06, No Iterations 8
ExecutionTime = 9.96 s  ClockTime = 10 s

Time = 110

smoothSolver:  Solving for Ux, Initial residual = 0.00145555, Final residual = 5.78908e-06, No Iterations 8
smoothSolver:  Solving for Uy, Initial residual = 0.000786688, Final residual = 3.2878e-06, No Iterations 8
GAMG:  Solving for p, Initial residual = 0.000614663, Final residual = 5.02212e-06, No Iterations 4
time step continuity errors : sum local = 1.52329e-06, global = -1.23941e-16, cumulative = 1.98317e-15
smoothSolver:  Solving for nuTilda, Initial residual = 0.000773162, Final residual = 3.47364e-06, No Iterations 8
ExecutionTime = 10.04 s  ClockTime = 10 s

forces wings output:
    sum of forces:
        pressure : (3.51873 -3.53694 3.40713e-19)
        viscous  : (0.263703 0.0294397 8.1556e-21)
        porous   : (0 0 0)
    sum of moments:
        pressure : (0.176847 0.175937 4.58553)
        viscous  : (-0.00147198 0.0131851 -0.0242506)
        porous   : (0 0 0)

Time = 111

smoothSolver:  Solving for Ux, Initial residual = 0.0014438, Final residual = 5.73373e-06, No Iterations 8
smoothSolver:  Solving for Uy, Initial residual = 0.000780244, Final residual = 3.2502e-06, No Iterations 8
GAMG:  Solving for p, Initial residual = 0.000606924, Final residual = 5.02736e-06, No Iterations 4
time step continuity errors : sum local = 1.52316e-06, global = 3.11682e-18, cumulative = 1.98629e-15
smoothSolver:  Solving for nuTilda, Initial residual = 0.000759502, Final residual = 3.40857e-06, No Iterations 8
ExecutionTime = 10.13 s  ClockTime = 10 s

Time = 112

smoothSolver:  Solving for Ux, Initial residual = 0.00143215, Final residual = 5.67883e-06, No Iterations 8
smoothSolver:  Solving for Uy, Initial residual = 0.000773964, Final residual = 3.21373e-06, No Iterations 8
GAMG:  Solving for p, Initial residual = 0.000599215, Final residual = 5.0288e-06, No Iterations 4
time step continuity errors : sum local = 1.51918e-06, global = 4.96686e-17, cumulative = 2.03596e-15
smoothSolver:  Solving for nuTilda, Initial residual = 0.000746182, Final residual = 3.3451e-06, No Iterations 8
ExecutionTime = 10.22 s  ClockTime = 10 s

Time = 113

smoothSolver:  Solving for Ux, Initial residual = 0.00142053, Final residual = 5.62412e-06, No Iterations 8
smoothSolver:  Solving for Uy, Initial residual = 0.000767663, Final residual = 3.1776e-06, No Iterations 8
GAMG:  Solving for p, Initial residual = 0.000593124, Final residual = 5.04892e-06, No Iterations 4
time step continuity errors : sum local = 1.53915e-06, global = -1.00063e-17, cumulative = 2.02595e-15
smoothSolver:  Solving for nuTilda, Initial residual = 0.000733185, Final residual = 3.28317e-06, No Iterations 8
ExecutionTime = 10.3 s  ClockTime = 10 s

Time = 114

smoothSolver:  Solving for Ux, Initial residual = 0.00140895, Final residual = 5.5695e-06, No Iterations 8
smoothSolver:  Solving for Uy, Initial residual = 0.000761649, Final residual = 3.14286e-06, No Iterations 8
GAMG:  Solving for p, Initial residual = 0.000585875, Final residual = 5.00615e-06, No Iterations 4
time step continuity errors : sum local = 1.51148e-06, global = -2.73031e-17, cumulative = 1.99865e-15
smoothSolver:  Solving for nuTilda, Initial residual = 0.000720506, Final residual = 3.22276e-06, No Iterations 8
ExecutionTime = 10.38 s  ClockTime = 10 s

Time = 115

smoothSolver:  Solving for Ux, Initial residual = 0.00139748, Final residual = 5.51542e-06, No Iterations 8
smoothSolver:  Solving for Uy, Initial residual = 0.000755589, Final residual = 3.10874e-06, No Iterations 8
GAMG:  Solving for p, Initial residual = 0.000581521, Final residual = 4.96744e-06, No Iterations 4
time step continuity errors : sum local = 1.51294e-06, global = -1.87078e-16, cumulative = 1.81157e-15
smoothSolver:  Solving for nuTilda, Initial residual = 0.000708124, Final residual = 3.16378e-06, No Iterations 8
ExecutionTime = 10.47 s  ClockTime = 10 s

forces wings output:
    sum of forces:
        pressure : (3.56852 -3.69775 3.3999e-19)
        viscous  : (0.257937 0.0284629 8.71782e-21)
        porous   : (0 0 0)
    sum of moments:
        pressure : (0.184888 0.178426 4.59424)
        viscous  : (-0.00142315 0.0128968 -0.023753)
        porous   : (0 0 0)

Time = 116

smoothSolver:  Solving for Ux, Initial residual = 0.00138605, Final residual = 5.46149e-06, No Iterations 8
smoothSolver:  Solving for Uy, Initial residual = 0.000749798, Final residual = 3.07609e-06, No Iterations 8
GAMG:  Solving for p, Initial residual = 0.000575146, Final residual = 4.91547e-06, No Iterations 4
time step continuity errors : sum local = 1.49005e-06, global = 7.82449e-17, cumulative = 1.88982e-15
smoothSolver:  Solving for nuTilda, Initial residual = 0.00069603, Final residual = 3.10619e-06, No Iterations 8
ExecutionTime = 10.56 s  ClockTime = 10 s

Time = 117

smoothSolver:  Solving for Ux, Initial residual = 0.00137466, Final residual = 5.40795e-06, No Iterations 8
smoothSolver:  Solving for Uy, Initial residual = 0.000744049, Final residual = 3.04423e-06, No Iterations 8
GAMG:  Solving for p, Initial residual = 0.000571449, Final residual = 4.90701e-06, No Iterations 4
time step continuity errors : sum local = 1.48995e-06, global = -1.60332e-16, cumulative = 1.72948e-15
smoothSolver:  Solving for nuTilda, Initial residual = 0.000684221, Final residual = 3.04993e-06, No Iterations 8
ExecutionTime = 10.64 s  ClockTime = 11 s

Time = 118

smoothSolver:  Solving for Ux, Initial residual = 0.00136328, Final residual = 5.35455e-06, No Iterations 8
smoothSolver:  Solving for Uy, Initial residual = 0.000738599, Final residual = 3.01404e-06, No Iterations 8
GAMG:  Solving for p, Initial residual = 0.000566261, Final residual = 4.88448e-06, No Iterations 4
time step continuity errors : sum local = 1.48436e-06, global = 3.00759e-17, cumulative = 1.75956e-15
smoothSolver:  Solving for nuTilda, Initial residual = 0.000672684, Final residual = 2.99495e-06, No Iterations 8
ExecutionTime = 10.73 s  ClockTime = 11 s

Time = 119

smoothSolver:  Solving for Ux, Initial residual = 0.00135194, Final residual = 5.30164e-06, No Iterations 8
smoothSolver:  Solving for Uy, Initial residual = 0.000733233, Final residual = 2.98469e-06, No Iterations 8
GAMG:  Solving for p, Initial residual = 0.000563196, Final residual = 4.8913e-06, No Iterations 4
time step continuity errors : sum local = 1.48652e-06, global = 2.61396e-16, cumulative = 2.02096e-15
smoothSolver:  Solving for nuTilda, Initial residual = 0.000661383, Final residual = 2.94106e-06, No Iterations 8
ExecutionTime = 10.81 s  ClockTime = 11 s

Time = 120

smoothSolver:  Solving for Ux, Initial residual = 0.00134064, Final residual = 5.24904e-06, No Iterations 8
smoothSolver:  Solving for Uy, Initial residual = 0.000728124, Final residual = 2.95692e-06, No Iterations 8
GAMG:  Solving for p, Initial residual = 0.00055899, Final residual = 4.85823e-06, No Iterations 4
time step continuity errors : sum local = 1.47709e-06, global = 9.29622e-17, cumulative = 2.11392e-15
smoothSolver:  Solving for nuTilda, Initial residual = 0.000650313, Final residual = 2.8882e-06, No Iterations 8
ExecutionTime = 10.9 s  ClockTime = 11 s

forces wings output:
    sum of forces:
        pressure : (3.6139 -3.85246 3.38964e-19)
        viscous  : (0.252591 0.0275415 9.98864e-21)
        porous   : (0 0 0)
    sum of moments:
        pressure : (0.192623 0.180695 4.59804)
        viscous  : (-0.00137708 0.0126295 -0.0232907)
        porous   : (0 0 0)

Time = 121

smoothSolver:  Solving for Ux, Initial residual = 0.00132939, Final residual = 5.19691e-06, No Iterations 8
smoothSolver:  Solving for Uy, Initial residual = 0.000723219, Final residual = 2.93039e-06, No Iterations 8
GAMG:  Solving for p, Initial residual = 0.000556779, Final residual = 4.83898e-06, No Iterations 4
time step continuity errors : sum local = 1.47187e-06, global = -1.43758e-16, cumulative = 1.97016e-15
smoothSolver:  Solving for nuTilda, Initial residual = 0.000639498, Final residual = 2.8364e-06, No Iterations 8
ExecutionTime = 10.99 s  ClockTime = 11 s

Time = 122

smoothSolver:  Solving for Ux, Initial residual = 0.00131824, Final residual = 5.14504e-06, No Iterations 8
smoothSolver:  Solving for Uy, Initial residual = 0.000718682, Final residual = 2.90599e-06, No Iterations 8
[...]

forces wings output:
    sum of forces:
        pressure : (2.96228 -9.84741 7.3352e-20)
        viscous  : (0.107287 0.0150061 1.85429e-20)
        porous   : (0 0 0)
    sum of moments:
        pressure : (0.49237 0.148114 0.375554)
        viscous  : (-0.000750303 0.00536435 -0.00926094)
        porous   : (0 0 0)

Time = 4971

smoothSolver:  Solving for Ux, Initial residual = 2.75362e-08, Final residual = 6.03252e-09, No Iterations 2
smoothSolver:  Solving for Uy, Initial residual = 2.24411e-07, Final residual = 9.61922e-09, No Iterations 4
GAMG:  Solving for p, Initial residual = 8.8737e-07, Final residual = 8.8737e-07, No Iterations 0
time step continuity errors : sum local = 2.86888e-07, global = 2.68406e-16, cumulative = 3.71766e-14
smoothSolver:  Solving for nuTilda, Initial residual = 9.87761e-09, Final residual = 9.87761e-09, No Iterations 0
ExecutionTime = 411.46 s  ClockTime = 413 s

Time = 4972

smoothSolver:  Solving for Ux, Initial residual = 2.69705e-08, Final residual = 6.01229e-09, No Iterations 2
smoothSolver:  Solving for Uy, Initial residual = 2.1578e-07, Final residual = 9.40379e-09, No Iterations 4
GAMG:  Solving for p, Initial residual = 9.73567e-07, Final residual = 9.73567e-07, No Iterations 0
time step continuity errors : sum local = 3.14748e-07, global = 1.77442e-16, cumulative = 3.73541e-14
smoothSolver:  Solving for nuTilda, Initial residual = 1.00368e-08, Final residual = 2.58551e-09, No Iterations 2
ExecutionTime = 411.53 s  ClockTime = 413 s

Time = 4973

smoothSolver:  Solving for Ux, Initial residual = 2.61588e-08, Final residual = 5.85578e-09, No Iterations 2
smoothSolver:  Solving for Uy, Initial residual = 2.07409e-07, Final residual = 9.16438e-09, No Iterations 4
GAMG:  Solving for p, Initial residual = 1.2944e-06, Final residual = 5.97965e-07, No Iterations 1
time step continuity errors : sum local = 1.9333e-07, global = -3.8965e-17, cumulative = 3.73151e-14
smoothSolver:  Solving for nuTilda, Initial residual = 1.02216e-08, Final residual = 2.5481e-09, No Iterations 2
ExecutionTime = 411.6 s  ClockTime = 413 s

Time = 4974

smoothSolver:  Solving for Ux, Initial residual = 2.69001e-08, Final residual = 5.88187e-09, No Iterations 2
smoothSolver:  Solving for Uy, Initial residual = 2.22096e-07, Final residual = 9.87181e-09, No Iterations 4
GAMG:  Solving for p, Initial residual = 9.82161e-07, Final residual = 9.82161e-07, No Iterations 0
time step continuity errors : sum local = 3.17516e-07, global = 7.6902e-17, cumulative = 3.7392e-14
smoothSolver:  Solving for nuTilda, Initial residual = 9.88581e-09, Final residual = 9.88581e-09, No Iterations 0
ExecutionTime = 411.67 s  ClockTime = 413 s

Time = 4975

smoothSolver:  Solving for Ux, Initial residual = 2.63244e-08, Final residual = 5.85587e-09, No Iterations 2
smoothSolver:  Solving for Uy, Initial residual = 2.13497e-07, Final residual = 9.62512e-09, No Iterations 4
GAMG:  Solving for p, Initial residual = 1.03359e-06, Final residual = 4.92756e-07, No Iterations 1
time step continuity errors : sum local = 1.59327e-07, global = -7.47137e-18, cumulative = 3.73845e-14
smoothSolver:  Solving for nuTilda, Initial residual = 9.97176e-09, Final residual = 9.97176e-09, No Iterations 0
ExecutionTime = 411.74 s  ClockTime = 413 s

forces wings output:
    sum of forces:
        pressure : (2.96228 -9.84741 7.33496e-20)
        viscous  : (0.107287 0.015006 1.85447e-20)
        porous   : (0 0 0)
    sum of moments:
        pressure : (0.49237 0.148114 0.375551)
        viscous  : (-0.0007503 0.00536437 -0.00926101)
        porous   : (0 0 0)

Time = 4976

smoothSolver:  Solving for Ux, Initial residual = 2.82259e-08, Final residual = 6.08301e-09, No Iterations 2
smoothSolver:  Solving for Uy, Initial residual = 2.44638e-07, Final residual = 2.57347e-09, No Iterations 6
GAMG:  Solving for p, Initial residual = 8.94857e-07, Final residual = 8.94857e-07, No Iterations 0
time step continuity errors : sum local = 2.89295e-07, global = 5.39741e-16, cumulative = 3.79243e-14
smoothSolver:  Solving for nuTilda, Initial residual = 1.01781e-08, Final residual = 2.61985e-09, No Iterations 2
ExecutionTime = 411.82 s  ClockTime = 413 s

Time = 4977

smoothSolver:  Solving for Ux, Initial residual = 2.75757e-08, Final residual = 5.98079e-09, No Iterations 2
smoothSolver:  Solving for Uy, Initial residual = 2.3554e-07, Final residual = 2.50863e-09, No Iterations 6
GAMG:  Solving for p, Initial residual = 1.20221e-06, Final residual = 5.41898e-07, No Iterations 1
time step continuity errors : sum local = 1.75224e-07, global = -2.73711e-17, cumulative = 3.78969e-14
smoothSolver:  Solving for nuTilda, Initial residual = 1.03714e-08, Final residual = 2.58646e-09, No Iterations 2
ExecutionTime = 411.89 s  ClockTime = 413 s

Time = 4978

smoothSolver:  Solving for Ux, Initial residual = 2.61699e-08, Final residual = 5.82289e-09, No Iterations 2
smoothSolver:  Solving for Uy, Initial residual = 2.21332e-07, Final residual = 2.48146e-09, No Iterations 6
GAMG:  Solving for p, Initial residual = 9.99623e-07, Final residual = 9.99623e-07, No Iterations 0
time step continuity errors : sum local = 3.23162e-07, global = -4.053e-16, cumulative = 3.74916e-14
smoothSolver:  Solving for nuTilda, Initial residual = 1.0049e-08, Final residual = 2.58914e-09, No Iterations 2
ExecutionTime = 411.95 s  ClockTime = 413 s

Time = 4979

smoothSolver:  Solving for Ux, Initial residual = 2.52949e-08, Final residual = 5.67264e-09, No Iterations 2
smoothSolver:  Solving for Uy, Initial residual = 2.12657e-07, Final residual = 2.40772e-09, No Iterations 6
GAMG:  Solving for p, Initial residual = 1.16447e-06, Final residual = 5.31206e-07, No Iterations 1
time step continuity errors : sum local = 1.71789e-07, global = 9.2612e-18, cumulative = 3.75009e-14
smoothSolver:  Solving for nuTilda, Initial residual = 1.0263e-08, Final residual = 2.55772e-09, No Iterations 2
ExecutionTime = 412.02 s  ClockTime = 413 s

Time = 4980

smoothSolver:  Solving for Ux, Initial residual = 2.78301e-08, Final residual = 6.04417e-09, No Iterations 2
smoothSolver:  Solving for Uy, Initial residual = 2.3035e-07, Final residual = 9.98328e-09, No Iterations 4
GAMG:  Solving for p, Initial residual = 9.63787e-07, Final residual = 9.63787e-07, No Iterations 0
time step continuity errors : sum local = 3.11587e-07, global = -1.664e-16, cumulative = 3.73345e-14
smoothSolver:  Solving for nuTilda, Initial residual = 9.92944e-09, Final residual = 9.92944e-09, No Iterations 0
ExecutionTime = 412.08 s  ClockTime = 413 s

forces wings output:
    sum of forces:
        pressure : (2.96229 -9.84745 7.33496e-20)
        viscous  : (0.107286 0.0150061 1.85417e-20)
        porous   : (0 0 0)
    sum of moments:
        pressure : (0.492373 0.148115 0.375551)
        viscous  : (-0.000750305 0.00536431 -0.00926084)
        porous   : (0 0 0)

Time = 4981

smoothSolver:  Solving for Ux, Initial residual = 2.75242e-08, Final residual = 6.03653e-09, No Iterations 2
smoothSolver:  Solving for Uy, Initial residual = 2.22093e-07, Final residual = 9.84727e-09, No Iterations 4
GAMG:  Solving for p, Initial residual = 1.08101e-06, Final residual = 4.81353e-07, No Iterations 1
time step continuity errors : sum local = 1.55689e-07, global = 1.85146e-16, cumulative = 3.75196e-14
smoothSolver:  Solving for nuTilda, Initial residual = 1.0037e-08, Final residual = 2.58844e-09, No Iterations 2
ExecutionTime = 412.15 s  ClockTime = 413 s

Time = 4982

smoothSolver:  Solving for Ux, Initial residual = 2.68921e-08, Final residual = 5.90865e-09, No Iterations 2
smoothSolver:  Solving for Uy, Initial residual = 2.10355e-07, Final residual = 9.51633e-09, No Iterations 4
GAMG:  Solving for p, Initial residual = 7.89399e-07, Final residual = 7.89399e-07, No Iterations 0
time step continuity errors : sum local = 2.55232e-07, global = 4.98855e-18, cumulative = 3.75246e-14
smoothSolver:  Solving for nuTilda, Initial residual = 1.03191e-08, Final residual = 2.56843e-09, No Iterations 2
ExecutionTime = 412.22 s  ClockTime = 413 s

Time = 4983

smoothSolver:  Solving for Ux, Initial residual = 2.64037e-08, Final residual = 5.86008e-09, No Iterations 2
smoothSolver:  Solving for Uy, Initial residual = 2.03516e-07, Final residual = 9.38779e-09, No Iterations 4
GAMG:  Solving for p, Initial residual = 1.14457e-06, Final residual = 5.07939e-07, No Iterations 1
time step continuity errors : sum local = 1.64281e-07, global = 3.44156e-16, cumulative = 3.78687e-14
smoothSolver:  Solving for nuTilda, Initial residual = 9.90599e-09, Final residual = 9.90599e-09, No Iterations 0
ExecutionTime = 412.29 s  ClockTime = 413 s

Time = 4984

smoothSolver:  Solving for Ux, Initial residual = 2.80454e-08, Final residual = 6.11492e-09, No Iterations 2
smoothSolver:  Solving for Uy, Initial residual = 2.15541e-07, Final residual = 9.548e-09, No Iterations 4
GAMG:  Solving for p, Initial residual = 8.34514e-07, Final residual = 8.34514e-07, No Iterations 0
time step continuity errors : sum local = 2.6982e-07, global = 2.73576e-16, cumulative = 3.81423e-14
smoothSolver:  Solving for nuTilda, Initial residual = 1.0052e-08, Final residual = 2.59108e-09, No Iterations 2
ExecutionTime = 412.35 s  ClockTime = 414 s

Time = 4985

smoothSolver:  Solving for Ux, Initial residual = 2.70206e-08, Final residual = 5.95542e-09, No Iterations 2
smoothSolver:  Solving for Uy, Initial residual = 2.0694e-07, Final residual = 9.2878e-09, No Iterations 4
GAMG:  Solving for p, Initial residual = 1.14328e-06, Final residual = 4.67209e-07, No Iterations 1
time step continuity errors : sum local = 1.51097e-07, global = -9.40675e-17, cumulative = 3.80483e-14
smoothSolver:  Solving for nuTilda, Initial residual = 1.02729e-08, Final residual = 2.56063e-09, No Iterations 2
ExecutionTime = 412.42 s  ClockTime = 414 s

forces wings output:
    sum of forces:
        pressure : (2.9623 -9.84747 7.33523e-20)
        viscous  : (0.107287 0.015006 1.85431e-20)
        porous   : (0 0 0)
    sum of moments:
        pressure : (0.492374 0.148115 0.375554)
        viscous  : (-0.000750301 0.00536434 -0.00926094)
        porous   : (0 0 0)

Time = 4986

smoothSolver:  Solving for Ux, Initial residual = 2.73388e-08, Final residual = 5.95406e-09, No Iterations 2
smoothSolver:  Solving for Uy, Initial residual = 2.09831e-07, Final residual = 9.31538e-09, No Iterations 4
GAMG:  Solving for p, Initial residual = 8.13057e-07, Final residual = 8.13057e-07, No Iterations 0
time step continuity errors : sum local = 2.62883e-07, global = 1.85351e-17, cumulative = 3.80668e-14
smoothSolver:  Solving for nuTilda, Initial residual = 9.91638e-09, Final residual = 9.91638e-09, No Iterations 0
ExecutionTime = 412.49 s  ClockTime = 414 s

Time = 4987

smoothSolver:  Solving for Ux, Initial residual = 2.70001e-08, Final residual = 5.92676e-09, No Iterations 2
smoothSolver:  Solving for Uy, Initial residual = 2.02387e-07, Final residual = 9.09736e-09, No Iterations 4
GAMG:  Solving for p, Initial residual = 1.02418e-06, Final residual = 4.75207e-07, No Iterations 1
time step continuity errors : sum local = 1.53661e-07, global = -2.0816e-17, cumulative = 3.8046e-14
smoothSolver:  Solving for nuTilda, Initial residual = 1.00211e-08, Final residual = 2.58418e-09, No Iterations 2
ExecutionTime = 412.56 s  ClockTime = 414 s

Time = 4988

smoothSolver:  Solving for Ux, Initial residual = 2.69673e-08, Final residual = 5.85882e-09, No Iterations 2
smoothSolver:  Solving for Uy, Initial residual = 2.14039e-07, Final residual = 9.72113e-09, No Iterations 4
GAMG:  Solving for p, Initial residual = 7.26224e-07, Final residual = 7.26224e-07, No Iterations 0
time step continuity errors : sum local = 2.34805e-07, global = -6.51658e-17, cumulative = 3.79808e-14
smoothSolver:  Solving for nuTilda, Initial residual = 1.03058e-08, Final residual = 2.56433e-09, No Iterations 2
ExecutionTime = 412.63 s  ClockTime = 414 s

Time = 4989

smoothSolver:  Solving for Ux, Initial residual = 2.64415e-08, Final residual = 5.80228e-09, No Iterations 2
smoothSolver:  Solving for Uy, Initial residual = 2.07072e-07, Final residual = 9.60774e-09, No Iterations 4
GAMG:  Solving for p, Initial residual = 1.14953e-06, Final residual = 4.62764e-07, No Iterations 1
time step continuity errors : sum local = 1.49635e-07, global = 6.14145e-17, cumulative = 3.80422e-14
smoothSolver:  Solving for nuTilda, Initial residual = 9.86863e-09, Final residual = 9.86863e-09, No Iterations 0
ExecutionTime = 412.7 s  ClockTime = 414 s

Time = 4990

smoothSolver:  Solving for Ux, Initial residual = 2.67542e-08, Final residual = 5.8378e-09, No Iterations 2
smoothSolver:  Solving for Uy, Initial residual = 2.18473e-07, Final residual = 2.43645e-09, No Iterations 6
GAMG:  Solving for p, Initial residual = 7.92092e-07, Final residual = 7.92092e-07, No Iterations 0
time step continuity errors : sum local = 2.56086e-07, global = -1.22602e-16, cumulative = 3.79196e-14
smoothSolver:  Solving for nuTilda, Initial residual = 1.0055e-08, Final residual = 2.59104e-09, No Iterations 2
ExecutionTime = 412.77 s  ClockTime = 414 s

forces wings output:
    sum of forces:
        pressure : (2.96229 -9.84746 7.33497e-20)
        viscous  : (0.107287 0.015006 1.85448e-20)
        porous   : (0 0 0)
    sum of moments:
        pressure : (0.492373 0.148115 0.375551)
        viscous  : (-0.000750298 0.00536436 -0.009261)
        porous   : (0 0 0)

Time = 4991

smoothSolver:  Solving for Ux, Initial residual = 2.57948e-08, Final residual = 5.68569e-09, No Iterations 2
smoothSolver:  Solving for Uy, Initial residual = 2.10432e-07, Final residual = 9.87619e-09, No Iterations 4
GAMG:  Solving for p, Initial residual = 1.06666e-06, Final residual = 4.5137e-07, No Iterations 1
time step continuity errors : sum local = 1.45969e-07, global = -2.06073e-16, cumulative = 3.77135e-14
smoothSolver:  Solving for nuTilda, Initial residual = 1.02434e-08, Final residual = 2.55557e-09, No Iterations 2
ExecutionTime = 412.85 s  ClockTime = 414 s

Time = 4992

smoothSolver:  Solving for Ux, Initial residual = 2.61105e-08, Final residual = 5.71663e-09, No Iterations 2
smoothSolver:  Solving for Uy, Initial residual = 2.12352e-07, Final residual = 9.80312e-09, No Iterations 4
GAMG:  Solving for p, Initial residual = 7.92309e-07, Final residual = 7.92309e-07, No Iterations 0
time step continuity errors : sum local = 2.56161e-07, global = -6.23182e-17, cumulative = 3.76512e-14
smoothSolver:  Solving for nuTilda, Initial residual = 9.91056e-09, Final residual = 9.91056e-09, No Iterations 0
ExecutionTime = 412.91 s  ClockTime = 414 s

Time = 4993

smoothSolver:  Solving for Ux, Initial residual = 2.57803e-08, Final residual = 5.6877e-09, No Iterations 2
smoothSolver:  Solving for Uy, Initial residual = 2.04945e-07, Final residual = 9.58474e-09, No Iterations 4
GAMG:  Solving for p, Initial residual = 9.80312e-07, Final residual = 9.80312e-07, No Iterations 0
time step continuity errors : sum local = 3.16928e-07, global = 1.60769e-16, cumulative = 3.7812e-14
smoothSolver:  Solving for nuTilda, Initial residual = 1.00746e-08, Final residual = 2.59648e-09, No Iterations 2
ExecutionTime = 412.98 s  ClockTime = 414 s

Time = 4994

smoothSolver:  Solving for Ux, Initial residual = 2.5061e-08, Final residual = 5.55062e-09, No Iterations 2
smoothSolver:  Solving for Uy, Initial residual = 1.97771e-07, Final residual = 9.34245e-09, No Iterations 4
GAMG:  Solving for p, Initial residual = 1.30161e-06, Final residual = 6.03201e-07, No Iterations 1
time step continuity errors : sum local = 1.95075e-07, global = 2.77939e-16, cumulative = 3.80899e-14
smoothSolver:  Solving for nuTilda, Initial residual = 1.02473e-08, Final residual = 2.55687e-09, No Iterations 2
ExecutionTime = 413.04 s  ClockTime = 414 s

Time = 4995

smoothSolver:  Solving for Ux, Initial residual = 2.70024e-08, Final residual = 5.79311e-09, No Iterations 2
smoothSolver:  Solving for Uy, Initial residual = 2.29575e-07, Final residual = 9.82617e-09, No Iterations 4
GAMG:  Solving for p, Initial residual = 8.89605e-07, Final residual = 8.89605e-07, No Iterations 0
time step continuity errors : sum local = 2.87621e-07, global = -6.82062e-17, cumulative = 3.80217e-14
smoothSolver:  Solving for nuTilda, Initial residual = 9.90789e-09, Final residual = 9.90789e-09, No Iterations 0
ExecutionTime = 413.11 s  ClockTime = 414 s

forces wings output:
    sum of forces:
        pressure : (2.9623 -9.84748 7.33507e-20)
        viscous  : (0.107286 0.015006 1.85418e-20)
        porous   : (0 0 0)
    sum of moments:
        pressure : (0.492374 0.148115 0.375557)
        viscous  : (-0.000750301 0.00536432 -0.00926087)
        porous   : (0 0 0)

Time = 4996

smoothSolver:  Solving for Ux, Initial residual = 2.64037e-08, Final residual = 5.76738e-09, No Iterations 2
smoothSolver:  Solving for Uy, Initial residual = 2.21414e-07, Final residual = 9.61095e-09, No Iterations 4
GAMG:  Solving for p, Initial residual = 9.63227e-07, Final residual = 9.63227e-07, No Iterations 0
time step continuity errors : sum local = 3.11416e-07, global = 3.26318e-16, cumulative = 3.8348e-14
smoothSolver:  Solving for nuTilda, Initial residual = 1.00499e-08, Final residual = 2.58911e-09, No Iterations 2
ExecutionTime = 413.17 s  ClockTime = 414 s

Time = 4997

smoothSolver:  Solving for Ux, Initial residual = 2.56005e-08, Final residual = 5.62666e-09, No Iterations 2
smoothSolver:  Solving for Uy, Initial residual = 2.13408e-07, Final residual = 9.39578e-09, No Iterations 4
GAMG:  Solving for p, Initial residual = 1.28867e-06, Final residual = 5.8358e-07, No Iterations 1
time step continuity errors : sum local = 1.88629e-07, global = 3.62431e-16, cumulative = 3.87105e-14
smoothSolver:  Solving for nuTilda, Initial residual = 1.0235e-08, Final residual = 2.55119e-09, No Iterations 2
ExecutionTime = 413.24 s  ClockTime = 414 s

Time = 4998

smoothSolver:  Solving for Ux, Initial residual = 2.62657e-08, Final residual = 5.74434e-09, No Iterations 2
smoothSolver:  Solving for Uy, Initial residual = 2.15524e-07, Final residual = 9.38873e-09, No Iterations 4
GAMG:  Solving for p, Initial residual = 9.93411e-07, Final residual = 9.93411e-07, No Iterations 0
time step continuity errors : sum local = 3.21138e-07, global = 1.49269e-17, cumulative = 3.87254e-14
smoothSolver:  Solving for nuTilda, Initial residual = 9.882e-09, Final residual = 9.882e-09, No Iterations 0
ExecutionTime = 413.3 s  ClockTime = 415 s

Time = 4999

smoothSolver:  Solving for Ux, Initial residual = 2.57911e-08, Final residual = 5.71615e-09, No Iterations 2
smoothSolver:  Solving for Uy, Initial residual = 2.07241e-07, Final residual = 9.20439e-09, No Iterations 4
GAMG:  Solving for p, Initial residual = 1.0203e-06, Final residual = 4.88073e-07, No Iterations 1
time step continuity errors : sum local = 1.57773e-07, global = 1.32023e-16, cumulative = 3.88574e-14
smoothSolver:  Solving for nuTilda, Initial residual = 9.97968e-09, Final residual = 9.97968e-09, No Iterations 0
ExecutionTime = 413.37 s  ClockTime = 415 s

Time = 5000

smoothSolver:  Solving for Ux, Initial residual = 2.78889e-08, Final residual = 5.97124e-09, No Iterations 2
smoothSolver:  Solving for Uy, Initial residual = 2.423e-07, Final residual = 2.38899e-09, No Iterations 6
GAMG:  Solving for p, Initial residual = 8.72859e-07, Final residual = 8.72859e-07, No Iterations 0
time step continuity errors : sum local = 2.82151e-07, global = 1.5209e-16, cumulative = 3.90095e-14
smoothSolver:  Solving for nuTilda, Initial residual = 1.01594e-08, Final residual = 2.61491e-09, No Iterations 2
ExecutionTime = 413.57 s  ClockTime = 415 s

forces wings output:
    sum of forces:
        pressure : (2.96231 -9.84751 7.33532e-20)
        viscous  : (0.107287 0.0150059 1.85451e-20)
        porous   : (0 0 0)
    sum of moments:
        pressure : (0.492375 0.148115 0.375552)
        viscous  : (-0.000750295 0.00536437 -0.00926107)
        porous   : (0 0 0)

End

