/*---------------------------------------------------------------------------*\
| =========                 |                                                 |
| \\      /  F ield         | OpenFOAM: The Open Source CFD Toolbox           |
|  \\    /   O peration     | Version:  2.3.0                                 |
|   \\  /    A nd           | Web:      www.OpenFOAM.org                      |
|    \\/     M anipulation  |                                                 |
\*---------------------------------------------------------------------------*/
Build  : 2.3.0-f5222ca19ce6
Exec   : simpleFoam -case Runs/flatplate_0_flip/case
Date   : Jan 08 2015
Time   : 18:08:11
Host   : "lordvon-XPS-8300"
PID    : 5981
Case   : Runs/flatplate_0_flip/case
nProcs : 1
sigFpe : Enabling floating point exception trapping (FOAM_SIGFPE).
fileModificationChecking : Monitoring run-time modified files using timeStampMaster
allowSystemOperations : Disallowing user-supplied system call operations

// * * * * * * * * * * * * * * * * * * * * * * * * * * * * * * * * * * * * * //
Create time

Create mesh for time = 0

Reading field p

Reading field U

Reading/calculating face flux field phi

Selecting incompressible transport model Newtonian
Selecting RAS turbulence model SpalartAllmaras
SpalartAllmarasCoeffs
{
    sigmaNut        0.66666;
    kappa           0.41;
    Cb1             0.1355;
    Cb2             0.622;
    Cw2             0.3;
    Cw3             2;
    Cv1             7.1;
    Cv2             5;
}

    Employing Ashford correction
No finite volume options present


SIMPLE: convergence criteria
    field p	 tolerance 1e-12
    field U	 tolerance 1e-12
    field nuTilda	 tolerance 1e-12


Starting time loop

forces wings:
    Not including porosity effects

Time = 1

smoothSolver:  Solving for Ux, Initial residual = 1, Final residual = 0.0315822, No Iterations 4
smoothSolver:  Solving for Uy, Initial residual = 1, Final residual = 0.030742, No Iterations 4
GAMG:  Solving for p, Initial residual = 1, Final residual = 0.0850215, No Iterations 1
time step continuity errors : sum local = 0.00820743, global = -9.3133e-18, cumulative = -9.3133e-18
smoothSolver:  Solving for nuTilda, Initial residual = 1, Final residual = 0.0182412, No Iterations 2
ExecutionTime = 0.08 s  ClockTime = 1 s

Time = 2

smoothSolver:  Solving for Ux, Initial residual = 0.244097, Final residual = 0.00736752, No Iterations 4
smoothSolver:  Solving for Uy, Initial residual = 0.413179, Final residual = 0.0194643, No Iterations 4
GAMG:  Solving for p, Initial residual = 0.654427, Final residual = 0.0570142, No Iterations 1
time step continuity errors : sum local = 0.00943186, global = -2.1777e-16, cumulative = -2.27083e-16
smoothSolver:  Solving for nuTilda, Initial residual = 0.177152, Final residual = 0.0114189, No Iterations 2
ExecutionTime = 0.09 s  ClockTime = 1 s

Time = 3

smoothSolver:  Solving for Ux, Initial residual = 0.136794, Final residual = 0.00400123, No Iterations 4
smoothSolver:  Solving for Uy, Initial residual = 0.305164, Final residual = 0.015685, No Iterations 4
GAMG:  Solving for p, Initial residual = 0.449519, Final residual = 0.0413683, No Iterations 1
time step continuity errors : sum local = 0.00877758, global = 1.23531e-16, cumulative = -1.03552e-16
smoothSolver:  Solving for nuTilda, Initial residual = 0.0797293, Final residual = 0.00224283, No Iterations 4
ExecutionTime = 0.11 s  ClockTime = 1 s

Time = 4

smoothSolver:  Solving for Ux, Initial residual = 0.0987416, Final residual = 0.00310888, No Iterations 4
smoothSolver:  Solving for Uy, Initial residual = 0.206247, Final residual = 0.0107645, No Iterations 4
GAMG:  Solving for p, Initial residual = 0.329971, Final residual = 0.0124005, No Iterations 2
time step continuity errors : sum local = 0.00303597, global = -1.09204e-16, cumulative = -2.12756e-16
smoothSolver:  Solving for nuTilda, Initial residual = 0.0522735, Final residual = 0.00212652, No Iterations 4
ExecutionTime = 0.12 s  ClockTime = 1 s

Time = 5

smoothSolver:  Solving for Ux, Initial residual = 0.0773237, Final residual = 0.00298454, No Iterations 4
smoothSolver:  Solving for Uy, Initial residual = 0.13616, Final residual = 0.00664627, No Iterations 4
GAMG:  Solving for p, Initial residual = 0.245696, Final residual = 0.0104054, No Iterations 2
time step continuity errors : sum local = 0.00281495, global = 3.37268e-17, cumulative = -1.79029e-16
smoothSolver:  Solving for nuTilda, Initial residual = 0.0402014, Final residual = 0.00182671, No Iterations 4
ExecutionTime = 0.13 s  ClockTime = 1 s

forces wings output:
    sum of forces:
        pressure : (-4.41124e-19 -0.0288128 -4.86199e-36)
        viscous  : (0.477209 2.21197e-06 4.6097e-38)
        porous   : (0 0 0)
    sum of moments:
        pressure : (0.00144064 -2.20562e-20 0.00512955)
        viscous  : (-1.10598e-07 0.0238605 -1.18776e-06)
        porous   : (0 0 0)

Time = 6

smoothSolver:  Solving for Ux, Initial residual = 0.0601135, Final residual = 0.00232341, No Iterations 4
smoothSolver:  Solving for Uy, Initial residual = 0.105835, Final residual = 0.00449251, No Iterations 4
GAMG:  Solving for p, Initial residual = 0.196534, Final residual = 0.00845399, No Iterations 2
time step continuity errors : sum local = 0.00244905, global = -5.55789e-17, cumulative = -2.34608e-16
smoothSolver:  Solving for nuTilda, Initial residual = 0.0325946, Final residual = 0.00150775, No Iterations 4
ExecutionTime = 0.15 s  ClockTime = 1 s

Time = 7

smoothSolver:  Solving for Ux, Initial residual = 0.0440554, Final residual = 0.00146633, No Iterations 4
smoothSolver:  Solving for Uy, Initial residual = 0.098152, Final residual = 0.00412046, No Iterations 4
GAMG:  Solving for p, Initial residual = 0.163986, Final residual = 0.00763798, No Iterations 2
time step continuity errors : sum local = 0.0023356, global = 2.2994e-16, cumulative = -4.66749e-18
smoothSolver:  Solving for nuTilda, Initial residual = 0.0269728, Final residual = 0.00123215, No Iterations 4
bounding nuTilda, min: -0.000680599 max: 0.331417 average: 0.103826
ExecutionTime = 0.16 s  ClockTime = 1 s

Time = 8

smoothSolver:  Solving for Ux, Initial residual = 0.0343944, Final residual = 0.00103602, No Iterations 4
smoothSolver:  Solving for Uy, Initial residual = 0.0999301, Final residual = 0.00447958, No Iterations 4
GAMG:  Solving for p, Initial residual = 0.139178, Final residual = 0.00664158, No Iterations 2
time step continuity errors : sum local = 0.00211246, global = 1.4054e-17, cumulative = 9.38648e-18
smoothSolver:  Solving for nuTilda, Initial residual = 0.0227097, Final residual = 0.0010206, No Iterations 4
bounding nuTilda, min: -0.00140591 max: 0.350545 average: 0.101729
ExecutionTime = 0.18 s  ClockTime = 1 s

Time = 9

smoothSolver:  Solving for Ux, Initial residual = 0.0301796, Final residual = 0.00090395, No Iterations 4
smoothSolver:  Solving for Uy, Initial residual = 0.0910337, Final residual = 0.00437332, No Iterations 4
GAMG:  Solving for p, Initial residual = 0.118781, Final residual = 0.00530905, No Iterations 2
time step continuity errors : sum local = 0.00173186, global = 1.14427e-16, cumulative = 1.23813e-16
smoothSolver:  Solving for nuTilda, Initial residual = 0.019265, Final residual = 0.000850271, No Iterations 4
bounding nuTilda, min: -0.00426935 max: 0.366761 average: 0.099888
ExecutionTime = 0.19 s  ClockTime = 1 s

Time = 10

smoothSolver:  Solving for Ux, Initial residual = 0.0252411, Final residual = 0.000765103, No Iterations 4
smoothSolver:  Solving for Uy, Initial residual = 0.0746787, Final residual = 0.00380698, No Iterations 4
GAMG:  Solving for p, Initial residual = 0.103422, Final residual = 0.00452247, No Iterations 2
time step continuity errors : sum local = 0.0015045, global = 6.4239e-19, cumulative = 1.24456e-16
smoothSolver:  Solving for nuTilda, Initial residual = 0.0164225, Final residual = 0.000712809, No Iterations 4
bounding nuTilda, min: -0.00724597 max: 0.379595 average: 0.0982487
ExecutionTime = 0.2 s  ClockTime = 1 s

forces wings output:
    sum of forces:
        pressure : (-7.04419e-19 0.339443 -1.86373e-37)
        viscous  : (0.424181 -4.16065e-06 -6.42401e-39)
        porous   : (0 0 0)
    sum of moments:
        pressure : (-0.0169721 -3.52209e-20 0.083718)
        viscous  : (2.08032e-07 0.0212091 3.49204e-06)
        porous   : (0 0 0)

Time = 11

smoothSolver:  Solving for Ux, Initial residual = 0.0199422, Final residual = 0.000592808, No Iterations 4
smoothSolver:  Solving for Uy, Initial residual = 0.0574967, Final residual = 0.00299636, No Iterations 4
GAMG:  Solving for p, Initial residual = 0.0871564, Final residual = 0.00476151, No Iterations 2
time step continuity errors : sum local = 0.00160421, global = -1.33195e-16, cumulative = -8.73935e-18
smoothSolver:  Solving for nuTilda, Initial residual = 0.0140645, Final residual = 0.000602328, No Iterations 4
bounding nuTilda, min: -0.00759727 max: 0.389309 average: 0.096775
ExecutionTime = 0.22 s  ClockTime = 1 s

Time = 12

smoothSolver:  Solving for Ux, Initial residual = 0.0163285, Final residual = 0.000481575, No Iterations 4
smoothSolver:  Solving for Uy, Initial residual = 0.0441652, Final residual = 0.00209985, No Iterations 4
GAMG:  Solving for p, Initial residual = 0.0749083, Final residual = 0.00430586, No Iterations 2
time step continuity errors : sum local = 0.001463, global = -2.44882e-16, cumulative = -2.53622e-16
smoothSolver:  Solving for nuTilda, Initial residual = 0.0120558, Final residual = 0.000504129, No Iterations 4
bounding nuTilda, min: -0.00766255 max: 0.396365 average: 0.0954345
ExecutionTime = 0.23 s  ClockTime = 1 s

Time = 13

smoothSolver:  Solving for Ux, Initial residual = 0.0143934, Final residual = 0.000445028, No Iterations 4
smoothSolver:  Solving for Uy, Initial residual = 0.0459217, Final residual = 0.00199406, No Iterations 4
GAMG:  Solving for p, Initial residual = 0.0655296, Final residual = 0.00323137, No Iterations 2
time step continuity errors : sum local = 0.00110384, global = -6.74099e-17, cumulative = -3.21032e-16
smoothSolver:  Solving for nuTilda, Initial residual = 0.0103447, Final residual = 0.000421457, No Iterations 4
bounding nuTilda, min: -0.00757507 max: 0.401249 average: 0.0942058
ExecutionTime = 0.25 s  ClockTime = 1 s

Time = 14

smoothSolver:  Solving for Ux, Initial residual = 0.0127451, Final residual = 0.000391985, No Iterations 4
smoothSolver:  Solving for Uy, Initial residual = 0.0485099, Final residual = 0.00221645, No Iterations 4
GAMG:  Solving for p, Initial residual = 0.0575764, Final residual = 0.00248666, No Iterations 2
time step continuity errors : sum local = 0.000853496, global = 1.3278e-16, cumulative = -1.88252e-16
smoothSolver:  Solving for nuTilda, Initial residual = 0.00894114, Final residual = 0.000355864, No Iterations 4
bounding nuTilda, min: -0.00738869 max: 0.404402 average: 0.0930705
ExecutionTime = 0.26 s  ClockTime = 1 s

Time = 15

smoothSolver:  Solving for Ux, Initial residual = 0.0106678, Final residual = 0.000313757, No Iterations 4
smoothSolver:  Solving for Uy, Initial residual = 0.046882, Final residual = 0.00233429, No Iterations 4
GAMG:  Solving for p, Initial residual = 0.0503453, Final residual = 0.00218926, No Iterations 2
time step continuity errors : sum local = 0.000755413, global = 1.54474e-16, cumulative = -3.37778e-17
smoothSolver:  Solving for nuTilda, Initial residual = 0.00774287, Final residual = 0.000304232, No Iterations 4
bounding nuTilda, min: -0.00716356 max: 0.406234 average: 0.0920154
ExecutionTime = 0.27 s  ClockTime = 1 s

forces wings output:
    sum of forces:
        pressure : (-1.52241e-18 0.162666 -2.12373e-36)
        viscous  : (0.360925 8.20108e-07 3.58757e-38)
        porous   : (0 0 0)
    sum of moments:
        pressure : (-0.00813331 -7.61207e-20 0.000247101)
        viscous  : (-4.10054e-08 0.0180463 -1.9466e-06)
        porous   : (0 0 0)

Time = 16

smoothSolver:  Solving for Ux, Initial residual = 0.00895758, Final residual = 0.000265723, No Iterations 4
smoothSolver:  Solving for Uy, Initial residual = 0.0420846, Final residual = 0.00223558, No Iterations 4
GAMG:  Solving for p, Initial residual = 0.0437707, Final residual = 0.00213798, No Iterations 2
time step continuity errors : sum local = 0.00074072, global = -6.82912e-18, cumulative = -4.06069e-17
smoothSolver:  Solving for nuTilda, Initial residual = 0.00668957, Final residual = 0.000265939, No Iterations 4
bounding nuTilda, min: -0.00693379 max: 0.407172 average: 0.0910276
ExecutionTime = 0.29 s  ClockTime = 1 s

Time = 17

smoothSolver:  Solving for Ux, Initial residual = 0.00761578, Final residual = 0.000248601, No Iterations 4
smoothSolver:  Solving for Uy, Initial residual = 0.036217, Final residual = 0.00197594, No Iterations 4
GAMG:  Solving for p, Initial residual = 0.0378079, Final residual = 0.00195542, No Iterations 2
time step continuity errors : sum local = 0.000678788, global = -4.86065e-17, cumulative = -8.92134e-17
smoothSolver:  Solving for nuTilda, Initial residual = 0.00577871, Final residual = 0.000238504, No Iterations 4
bounding nuTilda, min: -0.00671523 max: 0.408154 average: 0.090102
ExecutionTime = 0.3 s  ClockTime = 1 s

Time = 18

smoothSolver:  Solving for Ux, Initial residual = 0.00637692, Final residual = 0.000222178, No Iterations 4
smoothSolver:  Solving for Uy, Initial residual = 0.0322275, Final residual = 0.00175643, No Iterations 4
GAMG:  Solving for p, Initial residual = 0.033551, Final residual = 0.00188309, No Iterations 2
time step continuity errors : sum local = 0.000654304, global = -6.08383e-17, cumulative = -1.50052e-16
smoothSolver:  Solving for nuTilda, Initial residual = 0.00499721, Final residual = 0.000217288, No Iterations 4
bounding nuTilda, min: -0.00651227 max: 0.408669 average: 0.0892296
ExecutionTime = 0.31 s  ClockTime = 1 s

Time = 19

smoothSolver:  Solving for Ux, Initial residual = 0.00530298, Final residual = 0.000186547, No Iterations 4
smoothSolver:  Solving for Uy, Initial residual = 0.0287115, Final residual = 0.00153971, No Iterations 4
GAMG:  Solving for p, Initial residual = 0.0293667, Final residual = 0.0016837, No Iterations 2
time step continuity errors : sum local = 0.000587231, global = -6.52541e-17, cumulative = -2.15306e-16
smoothSolver:  Solving for nuTilda, Initial residual = 0.00433138, Final residual = 0.000200193, No Iterations 4
bounding nuTilda, min: -0.00632442 max: 0.408845 average: 0.0884048
ExecutionTime = 0.33 s  ClockTime = 1 s

Time = 20

smoothSolver:  Solving for Ux, Initial residual = 0.00469728, Final residual = 0.000178577, No Iterations 4
smoothSolver:  Solving for Uy, Initial residual = 0.0266892, Final residual = 0.00142791, No Iterations 4
GAMG:  Solving for p, Initial residual = 0.026173, Final residual = 0.00150051, No Iterations 2
time step continuity errors : sum local = 0.000524782, global = -4.43459e-17, cumulative = -2.59652e-16
smoothSolver:  Solving for nuTilda, Initial residual = 0.00379109, Final residual = 0.000185378, No Iterations 4
bounding nuTilda, min: -0.00614981 max: 0.408794 average: 0.0876238
ExecutionTime = 0.34 s  ClockTime = 1 s

forces wings output:
    sum of forces:
        pressure : (-1.31431e-18 0.33651 -3.44442e-36)
        viscous  : (0.313801 9.73679e-06 9.81151e-38)
        porous   : (0 0 0)
    sum of moments:
        pressure : (-0.0168255 -6.57154e-20 0.0724619)
        viscous  : (-4.86839e-07 0.0156901 2.14262e-06)
        porous   : (0 0 0)

Time = 21

smoothSolver:  Solving for Ux, Initial residual = 0.004377, Final residual = 0.000189028, No Iterations 4
smoothSolver:  Solving for Uy, Initial residual = 0.027089, Final residual = 0.00145807, No Iterations 4
GAMG:  Solving for p, Initial residual = 0.0226408, Final residual = 0.00119253, No Iterations 2
time step continuity errors : sum local = 0.000417692, global = 1.0975e-16, cumulative = -1.49901e-16
smoothSolver:  Solving for nuTilda, Initial residual = 0.00335972, Final residual = 0.000172043, No Iterations 4
bounding nuTilda, min: -0.00598656 max: 0.408624 average: 0.0868839
ExecutionTime = 0.36 s  ClockTime = 1 s

Time = 22

smoothSolver:  Solving for Ux, Initial residual = 0.00390949, Final residual = 0.000175618, No Iterations 4
smoothSolver:  Solving for Uy, Initial residual = 0.0271301, Final residual = 0.00157003, No Iterations 4
GAMG:  Solving for p, Initial residual = 0.0196169, Final residual = 0.00123283, No Iterations 2
time step continuity errors : sum local = 0.000431292, global = -3.25308e-16, cumulative = -4.75209e-16
smoothSolver:  Solving for nuTilda, Initial residual = 0.00299787, Final residual = 0.00016021, No Iterations 4
bounding nuTilda, min: -0.00583433 max: 0.408416 average: 0.0861806
ExecutionTime = 0.37 s  ClockTime = 1 s

Time = 23

smoothSolver:  Solving for Ux, Initial residual = 0.0033337, Final residual = 0.000147497, No Iterations 4
smoothSolver:  Solving for Uy, Initial residual = 0.0238696, Final residual = 0.00147236, No Iterations 4
GAMG:  Solving for p, Initial residual = 0.0172847, Final residual = 0.00123641, No Iterations 2
time step continuity errors : sum local = 0.00043183, global = -6.15495e-17, cumulative = -5.36759e-16
smoothSolver:  Solving for nuTilda, Initial residual = 0.00271149, Final residual = 0.000150124, No Iterations 4
bounding nuTilda, min: -0.00569269 max: 0.408222 average: 0.0855111
ExecutionTime = 0.38 s  ClockTime = 1 s

Time = 24

smoothSolver:  Solving for Ux, Initial residual = 0.00285428, Final residual = 0.000122563, No Iterations 4
smoothSolver:  Solving for Uy, Initial residual = 0.0193885, Final residual = 0.00118432, No Iterations 4
GAMG:  Solving for p, Initial residual = 0.0153057, Final residual = 0.00123108, No Iterations 2
time step continuity errors : sum local = 0.000429385, global = 3.99793e-17, cumulative = -4.9678e-16
smoothSolver:  Solving for nuTilda, Initial residual = 0.00248057, Final residual = 0.000141032, No Iterations 4
bounding nuTilda, min: -0.00556168 max: 0.408065 average: 0.084873
ExecutionTime = 0.4 s  ClockTime = 1 s

Time = 25

smoothSolver:  Solving for Ux, Initial residual = 0.00260178, Final residual = 0.000118621, No Iterations 4
smoothSolver:  Solving for Uy, Initial residual = 0.0182587, Final residual = 0.000938337, No Iterations 4
GAMG:  Solving for p, Initial residual = 0.013688, Final residual = 0.00105545, No Iterations 2
time step continuity errors : sum local = 0.000368041, global = 1.02613e-16, cumulative = -3.94167e-16
smoothSolver:  Solving for nuTilda, Initial residual = 0.00229302, Final residual = 0.000132461, No Iterations 4
bounding nuTilda, min: -0.00544116 max: 0.407942 average: 0.0842643
ExecutionTime = 0.41 s  ClockTime = 1 s

forces wings output:
    sum of forces:
        pressure : (-2.27904e-18 0.260994 -2.99423e-36)
        viscous  : (0.290072 -4.0759e-06 1.22993e-37)
        porous   : (0 0 0)
    sum of moments:
        pressure : (-0.0130497 -1.13952e-19 -0.000823278)
        viscous  : (2.03795e-07 0.0145036 -4.04668e-06)
        porous   : (0 0 0)

Time = 26

smoothSolver:  Solving for Ux, Initial residual = 0.00243316, Final residual = 0.000118968, No Iterations 4
smoothSolver:  Solving for Uy, Initial residual = 0.0191986, Final residual = 0.000971165, No Iterations 4
GAMG:  Solving for p, Initial residual = 0.0124171, Final residual = 0.000808999, No Iterations 2
time step continuity errors : sum local = 0.000282273, global = 2.65872e-16, cumulative = -1.28295e-16
smoothSolver:  Solving for nuTilda, Initial residual = 0.00214248, Final residual = 0.000124532, No Iterations 4
bounding nuTilda, min: -0.00532993 max: 0.40783 average: 0.0836824
ExecutionTime = 0.42 s  ClockTime = 1 s

Time = 27

smoothSolver:  Solving for Ux, Initial residual = 0.00229882, Final residual = 0.000106003, No Iterations 4
smoothSolver:  Solving for Uy, Initial residual = 0.0184235, Final residual = 0.000986479, No Iterations 4
GAMG:  Solving for p, Initial residual = 0.0109064, Final residual = 0.000755358, No Iterations 2
time step continuity errors : sum local = 0.000263734, global = -5.57836e-17, cumulative = -1.84078e-16
smoothSolver:  Solving for nuTilda, Initial residual = 0.00201463, Final residual = 0.000117119, No Iterations 4
bounding nuTilda, min: -0.00522662 max: 0.40771 average: 0.0831253
ExecutionTime = 0.44 s  ClockTime = 1 s

Time = 28

smoothSolver:  Solving for Ux, Initial residual = 0.00215037, Final residual = 8.94285e-05, No Iterations 4
smoothSolver:  Solving for Uy, Initial residual = 0.0159073, Final residual = 0.000879827, No Iterations 4
GAMG:  Solving for p, Initial residual = 0.0097442, Final residual = 0.00076752, No Iterations 2
time step continuity errors : sum local = 0.000268162, global = -5.18337e-17, cumulative = -2.35912e-16
smoothSolver:  Solving for nuTilda, Initial residual = 0.00189617, Final residual = 0.000110343, No Iterations 4
bounding nuTilda, min: -0.00513031 max: 0.407573 average: 0.0825914
ExecutionTime = 0.45 s  ClockTime = 1 s

Time = 29

smoothSolver:  Solving for Ux, Initial residual = 0.00201958, Final residual = 8.2684e-05, No Iterations 4
smoothSolver:  Solving for Uy, Initial residual = 0.0141578, Final residual = 0.000760201, No Iterations 4
GAMG:  Solving for p, Initial residual = 0.00876476, Final residual = 0.000718859, No Iterations 2
time step continuity errors : sum local = 0.000251385, global = 6.96491e-17, cumulative = -1.66263e-16
smoothSolver:  Solving for nuTilda, Initial residual = 0.00178806, Final residual = 0.000104359, No Iterations 4
bounding nuTilda, min: -0.00504001 max: 0.407432 average: 0.0820798
ExecutionTime = 0.47 s  ClockTime = 1 s

Time = 30

smoothSolver:  Solving for Ux, Initial residual = 0.00189623, Final residual = 8.30387e-05, No Iterations 4
smoothSolver:  Solving for Uy, Initial residual = 0.015087, Final residual = 0.000771174, No Iterations 4
GAMG:  Solving for p, Initial residual = 0.0081323, Final residual = 0.000604088, No Iterations 2
time step continuity errors : sum local = 0.000211515, global = 3.15819e-16, cumulative = 1.49556e-16
smoothSolver:  Solving for nuTilda, Initial residual = 0.00168736, Final residual = 9.89304e-05, No Iterations 4
bounding nuTilda, min: -0.00495541 max: 0.407314 average: 0.0815886
ExecutionTime = 0.48 s  ClockTime = 1 s

forces wings output:
    sum of forces:
        pressure : (-1.50588e-18 0.309779 -3.88154e-36)
        viscous  : (0.276075 1.1451e-05 2.21258e-37)
        porous   : (0 0 0)
    sum of moments:
        pressure : (-0.015489 -7.52939e-20 0.0468637)
        viscous  : (-5.72552e-07 0.0138037 -1.22633e-06)
        porous   : (0 0 0)

Time = 31

smoothSolver:  Solving for Ux, Initial residual = 0.00171451, Final residual = 7.69656e-05, No Iterations 4
smoothSolver:  Solving for Uy, Initial residual = 0.0142295, Final residual = 0.000754751, No Iterations 4
GAMG:  Solving for p, Initial residual = 0.00724969, Final residual = 0.000570615, No Iterations 2
time step continuity errors : sum local = 0.000199949, global = -7.51447e-17, cumulative = 7.44113e-17
smoothSolver:  Solving for nuTilda, Initial residual = 0.00158764, Final residual = 9.38598e-05, No Iterations 4
bounding nuTilda, min: -0.00487623 max: 0.407247 average: 0.0811163
ExecutionTime = 0.49 s  ClockTime = 1 s

Time = 32

smoothSolver:  Solving for Ux, Initial residual = 0.00155533, Final residual = 6.88765e-05, No Iterations 4
smoothSolver:  Solving for Uy, Initial residual = 0.0117793, Final residual = 0.000663134, No Iterations 4
GAMG:  Solving for p, Initial residual = 0.00650792, Final residual = 0.000619175, No Iterations 2
time step continuity errors : sum local = 0.000216922, global = -1.07091e-16, cumulative = -3.26801e-17
smoothSolver:  Solving for nuTilda, Initial residual = 0.00149151, Final residual = 8.90228e-05, No Iterations 4
bounding nuTilda, min: -0.00480216 max: 0.407248 average: 0.0806615
ExecutionTime = 0.51 s  ClockTime = 1 s

Time = 33

smoothSolver:  Solving for Ux, Initial residual = 0.00150991, Final residual = 7.00431e-05, No Iterations 4
smoothSolver:  Solving for Uy, Initial residual = 0.0097208, Final residual = 0.00052604, No Iterations 4
GAMG:  Solving for p, Initial residual = 0.00589299, Final residual = 0.000584633, No Iterations 2
time step continuity errors : sum local = 0.000204817, global = 2.27636e-16, cumulative = 1.94956e-16
smoothSolver:  Solving for nuTilda, Initial residual = 0.00140785, Final residual = 8.45546e-05, No Iterations 4
bounding nuTilda, min: -0.00473311 max: 0.407317 average: 0.0802235
ExecutionTime = 0.52 s  ClockTime = 1 s

Time = 34

smoothSolver:  Solving for Ux, Initial residual = 0.00159128, Final residual = 7.81667e-05, No Iterations 4
smoothSolver:  Solving for Uy, Initial residual = 0.0108, Final residual = 0.00054531, No Iterations 4
GAMG:  Solving for p, Initial residual = 0.0053808, Final residual = 0.000464451, No Iterations 2
time step continuity errors : sum local = 0.000162783, global = -2.52629e-16, cumulative = -5.76732e-17
smoothSolver:  Solving for nuTilda, Initial residual = 0.00133875, Final residual = 8.04593e-05, No Iterations 4
bounding nuTilda, min: -0.0046686 max: 0.407432 average: 0.0798018
ExecutionTime = 0.54 s  ClockTime = 1 s

Time = 35

smoothSolver:  Solving for Ux, Initial residual = 0.00158008, Final residual = 7.87366e-05, No Iterations 4
smoothSolver:  Solving for Uy, Initial residual = 0.0123677, Final residual = 0.000667849, No Iterations 4
GAMG:  Solving for p, Initial residual = 0.0048818, Final residual = 0.000326748, No Iterations 2
time step continuity errors : sum local = 0.000114594, global = 7.27639e-17, cumulative = 1.50907e-17
smoothSolver:  Solving for nuTilda, Initial residual = 0.00127763, Final residual = 7.66903e-05, No Iterations 4
bounding nuTilda, min: -0.00460804 max: 0.407566 average: 0.0793963
ExecutionTime = 0.55 s  ClockTime = 1 s

forces wings output:
    sum of forces:
        pressure : (-1.08163e-18 0.184135 -2.71074e-36)
        viscous  : (0.266882 3.98976e-06 1.56418e-37)
        porous   : (0 0 0)
    sum of moments:
        pressure : (-0.00920673 -5.40817e-20 -0.00636936)
        viscous  : (-1.99488e-07 0.0133441 -1.30176e-06)
        porous   : (0 0 0)

Time = 36

smoothSolver:  Solving for Ux, Initial residual = 0.00145147, Final residual = 7.18592e-05, No Iterations 4
smoothSolver:  Solving for Uy, Initial residual = 0.0115332, Final residual = 0.000663285, No Iterations 4
GAMG:  Solving for p, Initial residual = 0.00436928, Final residual = 0.00033501, No Iterations 2
time step continuity errors : sum local = 0.000117197, global = 1.45452e-16, cumulative = 1.60543e-16
smoothSolver:  Solving for nuTilda, Initial residual = 0.00121723, Final residual = 7.31818e-05, No Iterations 4
bounding nuTilda, min: -0.00455065 max: 0.407687 average: 0.0790048
ExecutionTime = 0.56 s  ClockTime = 1 s

Time = 37

smoothSolver:  Solving for Ux, Initial residual = 0.00125385, Final residual = 6.04199e-05, No Iterations 4
smoothSolver:  Solving for Uy, Initial residual = 0.00899036, Final residual = 0.000548396, No Iterations 4
GAMG:  Solving for p, Initial residual = 0.00385271, Final residual = 0.000345104, No Iterations 2
time step continuity errors : sum local = 0.000120527, global = -2.5177e-16, cumulative = -9.12272e-17
smoothSolver:  Solving for nuTilda, Initial residual = 0.00115384, Final residual = 6.98372e-05, No Iterations 4
bounding nuTilda, min: -0.00449636 max: 0.407777 average: 0.0786266
ExecutionTime = 0.58 s  ClockTime = 1 s

Time = 38

smoothSolver:  Solving for Ux, Initial residual = 0.00108532, Final residual = 4.87345e-05, No Iterations 4
smoothSolver:  Solving for Uy, Initial residual = 0.00703583, Final residual = 0.000415596, No Iterations 4
GAMG:  Solving for p, Initial residual = 0.00344014, Final residual = 0.000288654, No Iterations 2
time step continuity errors : sum local = 0.000100854, global = 2.32174e-16, cumulative = 1.40947e-16
smoothSolver:  Solving for nuTilda, Initial residual = 0.00109184, Final residual = 6.6627e-05, No Iterations 4
bounding nuTilda, min: -0.00444481 max: 0.40783 average: 0.0782611
ExecutionTime = 0.59 s  ClockTime = 1 s

Time = 39

smoothSolver:  Solving for Ux, Initial residual = 0.00101126, Final residual = 4.51404e-05, No Iterations 4
smoothSolver:  Solving for Uy, Initial residual = 0.00675049, Final residual = 0.000383769, No Iterations 4
GAMG:  Solving for p, Initial residual = 0.00315504, Final residual = 0.000209757, No Iterations 2
time step continuity errors : sum local = 7.35052e-05, global = 5.34593e-17, cumulative = 1.94406e-16
smoothSolver:  Solving for nuTilda, Initial residual = 0.00103372, Final residual = 6.36192e-05, No Iterations 4
bounding nuTilda, min: -0.00439605 max: 0.407851 average: 0.0779075
ExecutionTime = 0.61 s  ClockTime = 1 s

Time = 40

smoothSolver:  Solving for Ux, Initial residual = 0.00095634, Final residual = 4.21795e-05, No Iterations 4
smoothSolver:  Solving for Uy, Initial residual = 0.0063521, Final residual = 0.000361646, No Iterations 4
GAMG:  Solving for p, Initial residual = 0.00285527, Final residual = 0.000200557, No Iterations 2
time step continuity errors : sum local = 7.04735e-05, global = 1.84364e-16, cumulative = 3.7877e-16
smoothSolver:  Solving for nuTilda, Initial residual = 0.000981229, Final residual = 6.08106e-05, No Iterations 4
bounding nuTilda, min: -0.00434962 max: 0.407854 average: 0.0775656
ExecutionTime = 0.62 s  ClockTime = 1 s

forces wings output:
    sum of forces:
        pressure : (-1.82425e-18 0.235671 -2.17363e-36)
        viscous  : (0.261024 6.30112e-06 8.13925e-38)
        porous   : (0 0 0)
    sum of moments:
        pressure : (-0.0117835 -9.12125e-20 0.0181275)
        viscous  : (-3.15056e-07 0.0130512 -3.54917e-06)
        porous   : (0 0 0)

Time = 41

smoothSolver:  Solving for Ux, Initial residual = 0.000905359, Final residual = 3.98429e-05, No Iterations 4
smoothSolver:  Solving for Uy, Initial residual = 0.0054281, Final residual = 0.000315864, No Iterations 4
GAMG:  Solving for p, Initial residual = 0.00253699, Final residual = 0.000209066, No Iterations 2
time step continuity errors : sum local = 7.35799e-05, global = 3.73537e-16, cumulative = 7.52307e-16
smoothSolver:  Solving for nuTilda, Initial residual = 0.000933657, Final residual = 5.80966e-05, No Iterations 4
bounding nuTilda, min: -0.00430559 max: 0.407848 average: 0.0772342
ExecutionTime = 0.63 s  ClockTime = 1 s

Time = 42

smoothSolver:  Solving for Ux, Initial residual = 0.000861843, Final residual = 3.88264e-05, No Iterations 4
smoothSolver:  Solving for Uy, Initial residual = 0.00473817, Final residual = 0.00027261, No Iterations 4
GAMG:  Solving for p, Initial residual = 0.00225248, Final residual = 0.000187334, No Iterations 2
time step continuity errors : sum local = 6.6048e-05, global = -1.32879e-17, cumulative = 7.39019e-16
smoothSolver:  Solving for nuTilda, Initial residual = 0.000891283, Final residual = 5.55532e-05, No Iterations 4
bounding nuTilda, min: -0.00426361 max: 0.407844 average: 0.0769132
ExecutionTime = 0.65 s  ClockTime = 1 s

Time = 43

smoothSolver:  Solving for Ux, Initial residual = 0.000815717, Final residual = 3.72379e-05, No Iterations 4
smoothSolver:  Solving for Uy, Initial residual = 0.00455075, Final residual = 0.000264402, No Iterations 4
GAMG:  Solving for p, Initial residual = 0.0020522, Final residual = 0.000147282, No Iterations 2
time step continuity errors : sum local = 5.20232e-05, global = 2.29496e-16, cumulative = 9.68515e-16
smoothSolver:  Solving for nuTilda, Initial residual = 0.000849336, Final residual = 5.30752e-05, No Iterations 4
bounding nuTilda, min: -0.00422374 max: 0.407843 average: 0.0766018
ExecutionTime = 0.66 s  ClockTime = 1 s

Time = 44

smoothSolver:  Solving for Ux, Initial residual = 0.000751986, Final residual = 3.4338e-05, No Iterations 4
smoothSolver:  Solving for Uy, Initial residual = 0.00441185, Final residual = 0.000258964, No Iterations 4
GAMG:  Solving for p, Initial residual = 0.00191907, Final residual = 0.00013758, No Iterations 2
time step continuity errors : sum local = 4.84674e-05, global = -2.57175e-16, cumulative = 7.1134e-16
smoothSolver:  Solving for nuTilda, Initial residual = 0.00080877, Final residual = 5.06637e-05, No Iterations 4
bounding nuTilda, min: -0.00418566 max: 0.407846 average: 0.0762997
ExecutionTime = 0.67 s  ClockTime = 1 s

Time = 45

smoothSolver:  Solving for Ux, Initial residual = 0.000688224, Final residual = 3.11905e-05, No Iterations 4
smoothSolver:  Solving for Uy, Initial residual = 0.00399236, Final residual = 0.000237199, No Iterations 4
GAMG:  Solving for p, Initial residual = 0.00175902, Final residual = 0.00014348, No Iterations 2
time step continuity errors : sum local = 5.0341e-05, global = 8.96706e-17, cumulative = 8.01011e-16
smoothSolver:  Solving for nuTilda, Initial residual = 0.000770081, Final residual = 4.83345e-05, No Iterations 4
bounding nuTilda, min: -0.00414945 max: 0.40785 average: 0.0760065
ExecutionTime = 0.69 s  ClockTime = 1 s

forces wings output:
    sum of forces:
        pressure : (-7.60543e-19 0.190669 -1.84742e-36)
        viscous  : (0.257045 1.03494e-05 7.0968e-38)
        porous   : (0 0 0)
    sum of moments:
        pressure : (-0.00953345 -3.80271e-20 0.00548044)
        viscous  : (-5.17468e-07 0.0128523 -1.63039e-06)
        porous   : (0 0 0)

Time = 46

smoothSolver:  Solving for Ux, Initial residual = 0.000653474, Final residual = 2.95026e-05, No Iterations 4
smoothSolver:  Solving for Uy, Initial residual = 0.00354274, Final residual = 0.000205926, No Iterations 4
GAMG:  Solving for p, Initial residual = 0.0016254, Final residual = 0.000143864, No Iterations 2
time step continuity errors : sum local = 5.03464e-05, global = -1.54131e-16, cumulative = 6.46879e-16
smoothSolver:  Solving for nuTilda, Initial residual = 0.000733696, Final residual = 4.61075e-05, No Iterations 4
bounding nuTilda, min: -0.00411485 max: 0.407855 average: 0.0757219
ExecutionTime = 0.7 s  ClockTime = 1 s

Time = 47

smoothSolver:  Solving for Ux, Initial residual = 0.0006281, Final residual = 2.80755e-05, No Iterations 4
smoothSolver:  Solving for Uy, Initial residual = 0.00320248, Final residual = 0.000184603, No Iterations 4
GAMG:  Solving for p, Initial residual = 0.00146018, Final residual = 0.000125133, No Iterations 2
time step continuity errors : sum local = 4.37802e-05, global = -1.56111e-16, cumulative = 4.90768e-16
smoothSolver:  Solving for nuTilda, Initial residual = 0.000698904, Final residual = 4.4022e-05, No Iterations 4
bounding nuTilda, min: -0.00408198 max: 0.407859 average: 0.0754466
ExecutionTime = 0.72 s  ClockTime = 1 s

Time = 48

smoothSolver:  Solving for Ux, Initial residual = 0.000595946, Final residual = 2.63051e-05, No Iterations 4
smoothSolver:  Solving for Uy, Initial residual = 0.00297937, Final residual = 0.000169448, No Iterations 4
GAMG:  Solving for p, Initial residual = 0.00133574, Final residual = 0.000104872, No Iterations 2
time step continuity errors : sum local = 3.67866e-05, global = -2.42693e-16, cumulative = 2.48075e-16
smoothSolver:  Solving for nuTilda, Initial residual = 0.000666178, Final residual = 4.20393e-05, No Iterations 4
bounding nuTilda, min: -0.00405061 max: 0.407861 average: 0.075179
ExecutionTime = 0.73 s  ClockTime = 1 s

Time = 49

smoothSolver:  Solving for Ux, Initial residual = 0.000555891, Final residual = 2.45115e-05, No Iterations 4
smoothSolver:  Solving for Uy, Initial residual = 0.00275596, Final residual = 0.000157631, No Iterations 4
GAMG:  Solving for p, Initial residual = 0.00123607, Final residual = 9.49024e-05, No Iterations 2
time step continuity errors : sum local = 3.3429e-05, global = -8.19452e-17, cumulative = 1.6613e-16
smoothSolver:  Solving for nuTilda, Initial residual = 0.000635646, Final residual = 4.01586e-05, No Iterations 4
bounding nuTilda, min: -0.00402036 max: 0.407862 average: 0.0749188
ExecutionTime = 0.74 s  ClockTime = 1 s

Time = 50

smoothSolver:  Solving for Ux, Initial residual = 0.000528919, Final residual = 2.36568e-05, No Iterations 4
smoothSolver:  Solving for Uy, Initial residual = 0.00251823, Final residual = 0.000146628, No Iterations 4
GAMG:  Solving for p, Initial residual = 0.00112548, Final residual = 9.53246e-05, No Iterations 2
time step continuity errors : sum local = 3.3689e-05, global = -3.78124e-18, cumulative = 1.62349e-16
smoothSolver:  Solving for nuTilda, Initial residual = 0.000606568, Final residual = 3.8374e-05, No Iterations 4
bounding nuTilda, min: -0.00399146 max: 0.407863 average: 0.0746654
ExecutionTime = 0.78 s  ClockTime = 1 s

forces wings output:
    sum of forces:
        pressure : (-1.43559e-18 0.220405 -2.27065e-36)
        viscous  : (0.253814 1.34157e-05 9.49829e-38)
        porous   : (0 0 0)
    sum of moments:
        pressure : (-0.0110203 -7.17797e-20 0.012354)
        viscous  : (-6.70786e-07 0.0126907 -3.43858e-06)
        porous   : (0 0 0)

Time = 51

smoothSolver:  Solving for Ux, Initial residual = 0.000500726, Final residual = 2.26024e-05, No Iterations 4
smoothSolver:  Solving for Uy, Initial residual = 0.00234902, Final residual = 0.000136784, No Iterations 4
GAMG:  Solving for p, Initial residual = 0.00101964, Final residual = 9.34186e-05, No Iterations 2
time step continuity errors : sum local = 3.31173e-05, global = 2.41045e-16, cumulative = 4.03393e-16
smoothSolver:  Solving for nuTilda, Initial residual = 0.000579025, Final residual = 3.6671e-05, No Iterations 4
bounding nuTilda, min: -0.00396381 max: 0.407862 average: 0.0744188
ExecutionTime = 0.8 s  ClockTime = 1 s

Time = 52

smoothSolver:  Solving for Ux, Initial residual = 0.000464051, Final residual = 2.08001e-05, No Iterations 4
smoothSolver:  Solving for Uy, Initial residual = 0.00224624, Final residual = 0.000126569, No Iterations 4
GAMG:  Solving for p, Initial residual = 0.000955737, Final residual = 8.81693e-05, No Iterations 2
time step continuity errors : sum local = 3.13272e-05, global = 1.57852e-16, cumulative = 5.61246e-16
smoothSolver:  Solving for nuTilda, Initial residual = 0.000552775, Final residual = 3.5067e-05, No Iterations 4
bounding nuTilda, min: -0.00393727 max: 0.407861 average: 0.0741789
ExecutionTime = 0.81 s  ClockTime = 1 s

Time = 53

smoothSolver:  Solving for Ux, Initial residual = 0.00043055, Final residual = 1.92179e-05, No Iterations 4
smoothSolver:  Solving for Uy, Initial residual = 0.00213174, Final residual = 0.000117645, No Iterations 4
GAMG:  Solving for p, Initial residual = 0.000934937, Final residual = 8.38408e-05, No Iterations 2
time step continuity errors : sum local = 2.97905e-05, global = 4.13245e-17, cumulative = 6.0257e-16
smoothSolver:  Solving for nuTilda, Initial residual = 0.000528012, Final residual = 3.35503e-05, No Iterations 4
bounding nuTilda, min: -0.00391182 max: 0.40786 average: 0.0739455
ExecutionTime = 0.83 s  ClockTime = 1 s

Time = 54

smoothSolver:  Solving for Ux, Initial residual = 0.000409798, Final residual = 1.86603e-05, No Iterations 4
smoothSolver:  Solving for Uy, Initial residual = 0.00196955, Final residual = 0.00011016, No Iterations 4
GAMG:  Solving for p, Initial residual = 0.00085262, Final residual = 7.92437e-05, No Iterations 2
time step continuity errors : sum local = 2.81233e-05, global = -1.98956e-16, cumulative = 4.03614e-16
smoothSolver:  Solving for nuTilda, Initial residual = 0.00050521, Final residual = 3.21165e-05, No Iterations 4
bounding nuTilda, min: -0.00388741 max: 0.407858 average: 0.0737192
ExecutionTime = 0.84 s  ClockTime = 1 s

Time = 55

smoothSolver:  Solving for Ux, Initial residual = 0.000397805, Final residual = 1.8219e-05, No Iterations 4
smoothSolver:  Solving for Uy, Initial residual = 0.00180919, Final residual = 0.000103274, No Iterations 4
GAMG:  Solving for p, Initial residual = 0.000768254, Final residual = 6.96255e-05, No Iterations 2
time step continuity errors : sum local = 2.47107e-05, global = -3.06764e-16, cumulative = 9.68507e-17
smoothSolver:  Solving for nuTilda, Initial residual = 0.000484023, Final residual = 3.07533e-05, No Iterations 4
bounding nuTilda, min: -0.00386399 max: 0.407857 average: 0.0734982
ExecutionTime = 0.86 s  ClockTime = 1 s

forces wings output:
    sum of forces:
        pressure : (-1.13267e-18 0.21072 -1.85889e-36)
        viscous  : (0.251403 1.10152e-05 7.71755e-38)
        porous   : (0 0 0)
    sum of moments:
        pressure : (-0.010536 -5.66333e-20 0.00576979)
        viscous  : (-5.50758e-07 0.0125701 -3.32325e-06)
        porous   : (0 0 0)

Time = 56

smoothSolver:  Solving for Ux, Initial residual = 0.000378691, Final residual = 1.73471e-05, No Iterations 4
smoothSolver:  Solving for Uy, Initial residual = 0.00176345, Final residual = 9.8655e-05, No Iterations 4
GAMG:  Solving for p, Initial residual = 0.000703257, Final residual = 6.11378e-05, No Iterations 2
time step continuity errors : sum local = 2.17058e-05, global = 3.07702e-16, cumulative = 4.04553e-16
smoothSolver:  Solving for nuTilda, Initial residual = 0.000464006, Final residual = 2.94493e-05, No Iterations 4
bounding nuTilda, min: -0.00384148 max: 0.407855 average: 0.0732829
ExecutionTime = 0.87 s  ClockTime = 1 s

Time = 57

smoothSolver:  Solving for Ux, Initial residual = 0.00035737, Final residual = 1.62301e-05, No Iterations 4
smoothSolver:  Solving for Uy, Initial residual = 0.00173684, Final residual = 9.74094e-05, No Iterations 4
GAMG:  Solving for p, Initial residual = 0.000662852, Final residual = 5.27306e-05, No Iterations 2
time step continuity errors : sum local = 1.87631e-05, global = -7.31824e-18, cumulative = 3.97234e-16
smoothSolver:  Solving for nuTilda, Initial residual = 0.000445155, Final residual = 2.82059e-05, No Iterations 4
bounding nuTilda, min: -0.00381981 max: 0.407853 average: 0.0730732
ExecutionTime = 0.89 s  ClockTime = 1 s

Time = 58

smoothSolver:  Solving for Ux, Initial residual = 0.000341016, Final residual = 1.5436e-05, No Iterations 4
smoothSolver:  Solving for Uy, Initial residual = 0.00162567, Final residual = 9.22517e-05, No Iterations 4
GAMG:  Solving for p, Initial residual = 0.000633713, Final residual = 5.04952e-05, No Iterations 2
time step continuity errors : sum local = 1.7997e-05, global = -2.68508e-16, cumulative = 1.28726e-16
smoothSolver:  Solving for nuTilda, Initial residual = 0.000427147, Final residual = 2.70157e-05, No Iterations 4
bounding nuTilda, min: -0.00379893 max: 0.407851 average: 0.0728693
ExecutionTime = 0.9 s  ClockTime = 1 s

Time = 59

smoothSolver:  Solving for Ux, Initial residual = 0.000323539, Final residual = 1.4796e-05, No Iterations 4
smoothSolver:  Solving for Uy, Initial residual = 0.00146116, Final residual = 8.39392e-05, No Iterations 4
GAMG:  Solving for p, Initial residual = 0.000589209, Final residual = 4.97911e-05, No Iterations 2
time step continuity errors : sum local = 1.77905e-05, global = 4.94893e-17, cumulative = 1.78216e-16
smoothSolver:  Solving for nuTilda, Initial residual = 0.000409902, Final residual = 2.58721e-05, No Iterations 4
bounding nuTilda, min: -0.00377879 max: 0.407848 average: 0.072671
ExecutionTime = 0.92 s  ClockTime = 1 s

Time = 60

smoothSolver:  Solving for Ux, Initial residual = 0.000303842, Final residual = 1.38378e-05, No Iterations 4
smoothSolver:  Solving for Uy, Initial residual = 0.0013554, Final residual = 7.57715e-05, No Iterations 4
GAMG:  Solving for p, Initial residual = 0.000545928, Final residual = 5.00406e-05, No Iterations 2
time step continuity errors : sum local = 1.79288e-05, global = 2.37273e-16, cumulative = 4.15488e-16
smoothSolver:  Solving for nuTilda, Initial residual = 0.000393411, Final residual = 2.478e-05, No Iterations 4
bounding nuTilda, min: -0.00375936 max: 0.407846 average: 0.0724777
ExecutionTime = 0.93 s  ClockTime = 1 s

forces wings output:
    sum of forces:
        pressure : (-1.30056e-18 0.224122 -1.88503e-36)
        viscous  : (0.249893 1.38983e-05 7.58203e-38)
        porous   : (0 0 0)
    sum of moments:
        pressure : (-0.0112061 -6.50279e-20 0.00779399)
        viscous  : (-6.94916e-07 0.0124946 -3.3959e-06)
        porous   : (0 0 0)

Time = 61

smoothSolver:  Solving for Ux, Initial residual = 0.000285151, Final residual = 1.2916e-05, No Iterations 4
smoothSolver:  Solving for Uy, Initial residual = 0.00129903, Final residual = 7.02949e-05, No Iterations 4
GAMG:  Solving for p, Initial residual = 0.00051721, Final residual = 4.62348e-05, No Iterations 2
time step continuity errors : sum local = 1.66549e-05, global = -3.75194e-17, cumulative = 3.77969e-16
smoothSolver:  Solving for nuTilda, Initial residual = 0.000377383, Final residual = 2.37375e-05, No Iterations 4
bounding nuTilda, min: -0.00374061 max: 0.407843 average: 0.0722897
ExecutionTime = 0.95 s  ClockTime = 1 s

Time = 62

smoothSolver:  Solving for Ux, Initial residual = 0.00027461, Final residual = 1.25593e-05, No Iterations 4
smoothSolver:  Solving for Uy, Initial residual = 0.00125121, Final residual = 6.83862e-05, No Iterations 4
GAMG:  Solving for p, Initial residual = 0.000493447, Final residual = 4.25916e-05, No Iterations 2
time step continuity errors : sum local = 1.54231e-05, global = -4.89427e-17, cumulative = 3.29026e-16
smoothSolver:  Solving for nuTilda, Initial residual = 0.000361929, Final residual = 2.27451e-05, No Iterations 4
bounding nuTilda, min: -0.00372254 max: 0.407842 average: 0.0721072
ExecutionTime = 0.96 s  ClockTime = 1 s

Time = 63

smoothSolver:  Solving for Ux, Initial residual = 0.000267392, Final residual = 1.24044e-05, No Iterations 4
smoothSolver:  Solving for Uy, Initial residual = 0.0011973, Final residual = 6.72717e-05, No Iterations 4
GAMG:  Solving for p, Initial residual = 0.000474727, Final residual = 4.13641e-05, No Iterations 2
time step continuity errors : sum local = 1.50043e-05, global = -4.59271e-17, cumulative = 2.83099e-16
smoothSolver:  Solving for nuTilda, Initial residual = 0.000347198, Final residual = 2.18026e-05, No Iterations 4
bounding nuTilda, min: -0.00370511 max: 0.407841 average: 0.0719297
ExecutionTime = 0.98 s  ClockTime = 1 s

Time = 64

smoothSolver:  Solving for Ux, Initial residual = 0.000256399, Final residual = 1.1908e-05, No Iterations 4
smoothSolver:  Solving for Uy, Initial residual = 0.00115285, Final residual = 6.47941e-05, No Iterations 4
GAMG:  Solving for p, Initial residual = 0.000450279, Final residual = 4.17932e-05, No Iterations 2
time step continuity errors : sum local = 1.51378e-05, global = -1.37797e-17, cumulative = 2.69319e-16
smoothSolver:  Solving for nuTilda, Initial residual = 0.000333021, Final residual = 2.09047e-05, No Iterations 4
bounding nuTilda, min: -0.0036883 max: 0.40784 average: 0.0717574
ExecutionTime = 0.99 s  ClockTime = 1 s

Time = 65

smoothSolver:  Solving for Ux, Initial residual = 0.000242378, Final residual = 1.11502e-05, No Iterations 4
smoothSolver:  Solving for Uy, Initial residual = 0.00112808, Final residual = 6.22462e-05, No Iterations 4
GAMG:  Solving for p, Initial residual = 0.000430154, Final residual = 3.79919e-05, No Iterations 2
time step continuity errors : sum local = 1.37912e-05, global = 2.37711e-16, cumulative = 5.0703e-16
smoothSolver:  Solving for nuTilda, Initial residual = 0.000319467, Final residual = 2.00446e-05, No Iterations 4
bounding nuTilda, min: -0.00367205 max: 0.40784 average: 0.0715904
ExecutionTime = 1 s  ClockTime = 2 s

forces wings output:
    sum of forces:
        pressure : (-1.29906e-18 0.223259 -1.71245e-36)
        viscous  : (0.248845 1.30791e-05 7.03308e-38)
        porous   : (0 0 0)
    sum of moments:
        pressure : (-0.0111629 -6.49531e-20 0.00261523)
        viscous  : (-6.53956e-07 0.0124423 -4.32198e-06)
        porous   : (0 0 0)

Time = 66

smoothSolver:  Solving for Ux, Initial residual = 0.00023294, Final residual = 1.06456e-05, No Iterations 4
smoothSolver:  Solving for Uy, Initial residual = 0.00110219, Final residual = 6.09873e-05, No Iterations 4
GAMG:  Solving for p, Initial residual = 0.000411921, Final residual = 3.30706e-05, No Iterations 2
time step continuity errors : sum local = 1.20519e-05, global = 7.2781e-17, cumulative = 5.79811e-16
smoothSolver:  Solving for nuTilda, Initial residual = 0.00030658, Final residual = 1.92192e-05, No Iterations 4
bounding nuTilda, min: -0.00365633 max: 0.407839 average: 0.0714286
ExecutionTime = 1.02 s  ClockTime = 2 s

Time = 67

smoothSolver:  Solving for Ux, Initial residual = 0.000226634, Final residual = 1.03796e-05, No Iterations 4
smoothSolver:  Solving for Uy, Initial residual = 0.00105242, Final residual = 5.79603e-05, No Iterations 4
GAMG:  Solving for p, Initial residual = 0.000394357, Final residual = 3.02634e-05, No Iterations 2
time step continuity errors : sum local = 1.08421e-05, global = -1.79699e-16, cumulative = 4.00112e-16
smoothSolver:  Solving for nuTilda, Initial residual = 0.000294127, Final residual = 1.84243e-05, No Iterations 4
bounding nuTilda, min: -0.00364109 max: 0.407838 average: 0.0712719
ExecutionTime = 1.03 s  ClockTime = 2 s

Time = 68

smoothSolver:  Solving for Ux, Initial residual = 0.000219173, Final residual = 1.01078e-05, No Iterations 4
smoothSolver:  Solving for Uy, Initial residual = 0.00100123, Final residual = 5.36717e-05, No Iterations 4
GAMG:  Solving for p, Initial residual = 0.000379907, Final residual = 3.18084e-05, No Iterations 2
time step continuity errors : sum local = 1.1096e-05, global = 3.71328e-17, cumulative = 4.37245e-16
smoothSolver:  Solving for nuTilda, Initial residual = 0.000282011, Final residual = 1.76547e-05, No Iterations 4
bounding nuTilda, min: -0.0036263 max: 0.407838 average: 0.0711206
ExecutionTime = 1.05 s  ClockTime = 2 s

Time = 69

smoothSolver:  Solving for Ux, Initial residual = 0.000210082, Final residual = 9.71157e-06, No Iterations 4
smoothSolver:  Solving for Uy, Initial residual = 0.000959849, Final residual = 4.99957e-05, No Iterations 4
GAMG:  Solving for p, Initial residual = 0.00036889, Final residual = 3.32842e-05, No Iterations 2
time step continuity errors : sum local = 1.16942e-05, global = 7.53293e-17, cumulative = 5.12574e-16
smoothSolver:  Solving for nuTilda, Initial residual = 0.000270132, Final residual = 1.68994e-05, No Iterations 4
bounding nuTilda, min: -0.00361197 max: 0.407837 average: 0.0709748
ExecutionTime = 1.06 s  ClockTime = 2 s

Time = 70

smoothSolver:  Solving for Ux, Initial residual = 0.000204582, Final residual = 9.47623e-06, No Iterations 4
smoothSolver:  Solving for Uy, Initial residual = 0.000924343, Final residual = 4.79169e-05, No Iterations 4
GAMG:  Solving for p, Initial residual = 0.00036051, Final residual = 3.23836e-05, No Iterations 2
time step continuity errors : sum local = 1.13081e-05, global = -6.12538e-17, cumulative = 4.51321e-16
smoothSolver:  Solving for nuTilda, Initial residual = 0.00025824, Final residual = 1.61603e-05, No Iterations 4
bounding nuTilda, min: -0.00359803 max: 0.407836 average: 0.0708344
ExecutionTime = 1.08 s  ClockTime = 2 s

forces wings output:
    sum of forces:
        pressure : (-1.25877e-18 0.226251 -1.5602e-36)
        viscous  : (0.248107 1.61563e-05 6.46982e-38)
        porous   : (0 0 0)
    sum of moments:
        pressure : (-0.0113126 -6.29385e-20 0.0021437)
        viscous  : (-8.07816e-07 0.0124054 -4.26231e-06)
        porous   : (0 0 0)

Time = 71

smoothSolver:  Solving for Ux, Initial residual = 0.000203481, Final residual = 9.45492e-06, No Iterations 4
smoothSolver:  Solving for Uy, Initial residual = 0.000904988, Final residual = 4.74436e-05, No Iterations 4
GAMG:  Solving for p, Initial residual = 0.000358019, Final residual = 2.88595e-05, No Iterations 2
time step continuity errors : sum local = 1.00775e-05, global = 1.06745e-16, cumulative = 5.58066e-16
smoothSolver:  Solving for nuTilda, Initial residual = 0.000246829, Final residual = 1.54404e-05, No Iterations 4
bounding nuTilda, min: -0.00358449 max: 0.407836 average: 0.0706996
ExecutionTime = 1.09 s  ClockTime = 2 s

Time = 72

smoothSolver:  Solving for Ux, Initial residual = 0.000199156, Final residual = 9.30909e-06, No Iterations 4
smoothSolver:  Solving for Uy, Initial residual = 0.000908196, Final residual = 4.7819e-05, No Iterations 4
GAMG:  Solving for p, Initial residual = 0.000347638, Final residual = 2.74646e-05, No Iterations 2
time step continuity errors : sum local = 9.6262e-06, global = 9.67281e-17, cumulative = 6.54794e-16
smoothSolver:  Solving for nuTilda, Initial residual = 0.000235768, Final residual = 1.47609e-05, No Iterations 4
bounding nuTilda, min: -0.00357132 max: 0.407836 average: 0.0705704
ExecutionTime = 1.1 s  ClockTime = 2 s

Time = 73

smoothSolver:  Solving for Ux, Initial residual = 0.000190924, Final residual = 8.86919e-06, No Iterations 4
smoothSolver:  Solving for Uy, Initial residual = 0.000917403, Final residual = 4.74544e-05, No Iterations 4
GAMG:  Solving for p, Initial residual = 0.000340851, Final residual = 2.69544e-05, No Iterations 2
time step continuity errors : sum local = 9.49548e-06, global = -1.67568e-16, cumulative = 4.87226e-16
smoothSolver:  Solving for nuTilda, Initial residual = 0.00022511, Final residual = 1.4119e-05, No Iterations 4
bounding nuTilda, min: -0.0035585 max: 0.407837 average: 0.0704469
ExecutionTime = 1.12 s  ClockTime = 2 s

Time = 74

smoothSolver:  Solving for Ux, Initial residual = 0.000180997, Final residual = 8.30117e-06, No Iterations 4
smoothSolver:  Solving for Uy, Initial residual = 0.000914971, Final residual = 4.74583e-05, No Iterations 4
GAMG:  Solving for p, Initial residual = 0.000333983, Final residual = 2.53308e-05, No Iterations 2
time step continuity errors : sum local = 8.97251e-06, global = 6.09693e-17, cumulative = 5.48195e-16
smoothSolver:  Solving for nuTilda, Initial residual = 0.000215045, Final residual = 1.35163e-05, No Iterations 4
bounding nuTilda, min: -0.00354601 max: 0.407837 average: 0.0703289
ExecutionTime = 1.13 s  ClockTime = 2 s

Time = 75

smoothSolver:  Solving for Ux, Initial residual = 0.000174375, Final residual = 7.86582e-06, No Iterations 4
smoothSolver:  Solving for Uy, Initial residual = 0.000902691, Final residual = 4.7054e-05, No Iterations 4
GAMG:  Solving for p, Initial residual = 0.000330761, Final residual = 2.3305e-05, No Iterations 2
time step continuity errors : sum local = 8.29327e-06, global = 2.4109e-16, cumulative = 7.89285e-16
smoothSolver:  Solving for nuTilda, Initial residual = 0.000205573, Final residual = 1.29683e-05, No Iterations 4
bounding nuTilda, min: -0.00353383 max: 0.407838 average: 0.0702165
ExecutionTime = 1.15 s  ClockTime = 2 s

forces wings output:
    sum of forces:
        pressure : (-1.36214e-18 0.231191 -1.46685e-36)
        viscous  : (0.2476 1.59e-05 6.14651e-38)
        porous   : (0 0 0)
    sum of moments:
        pressure : (-0.0115595 -6.81069e-20 -0.000417903)
        viscous  : (-7.94998e-07 0.01238 -4.97823e-06)
        porous   : (0 0 0)

Time = 76

smoothSolver:  Solving for Ux, Initial residual = 0.000172758, Final residual = 7.71856e-06, No Iterations 4
smoothSolver:  Solving for Uy, Initial residual = 0.000889283, Final residual = 4.5902e-05, No Iterations 4
GAMG:  Solving for p, Initial residual = 0.000332446, Final residual = 2.38273e-05, No Iterations 2
time step continuity errors : sum local = 8.47784e-06, global = -9.86412e-18, cumulative = 7.79421e-16
smoothSolver:  Solving for nuTilda, Initial residual = 0.000196782, Final residual = 1.24545e-05, No Iterations 4
bounding nuTilda, min: -0.00352193 max: 0.407838 average: 0.0701096
ExecutionTime = 1.16 s  ClockTime = 2 s

Time = 77

smoothSolver:  Solving for Ux, Initial residual = 0.000171948, Final residual = 7.64441e-06, No Iterations 4
smoothSolver:  Solving for Uy, Initial residual = 0.000879096, Final residual = 4.48435e-05, No Iterations 4
GAMG:  Solving for p, Initial residual = 0.000332874, Final residual = 2.52594e-05, No Iterations 2
time step continuity errors : sum local = 8.95798e-06, global = 2.1561e-16, cumulative = 9.95032e-16
smoothSolver:  Solving for nuTilda, Initial residual = 0.000188326, Final residual = 1.19689e-05, No Iterations 4
bounding nuTilda, min: -0.00351029 max: 0.407838 average: 0.0700082
ExecutionTime = 1.17 s  ClockTime = 2 s

Time = 78

smoothSolver:  Solving for Ux, Initial residual = 0.000172126, Final residual = 7.58813e-06, No Iterations 4
smoothSolver:  Solving for Uy, Initial residual = 0.000866501, Final residual = 4.45801e-05, No Iterations 4
GAMG:  Solving for p, Initial residual = 0.000338222, Final residual = 2.52432e-05, No Iterations 2
time step continuity errors : sum local = 8.92132e-06, global = -1.40149e-16, cumulative = 8.54882e-16
smoothSolver:  Solving for nuTilda, Initial residual = 0.000180355, Final residual = 1.15085e-05, No Iterations 4
bounding nuTilda, min: -0.0034989 max: 0.407839 average: 0.0699124
ExecutionTime = 1.19 s  ClockTime = 2 s

Time = 79

smoothSolver:  Solving for Ux, Initial residual = 0.000172073, Final residual = 7.53193e-06, No Iterations 4
smoothSolver:  Solving for Uy, Initial residual = 0.000852965, Final residual = 4.51576e-05, No Iterations 4
GAMG:  Solving for p, Initial residual = 0.000343701, Final residual = 2.41938e-05, No Iterations 2
time step continuity errors : sum local = 8.52103e-06, global = 1.40547e-16, cumulative = 9.9543e-16
smoothSolver:  Solving for nuTilda, Initial residual = 0.000173309, Final residual = 1.1086e-05, No Iterations 4
bounding nuTilda, min: -0.00348773 max: 0.40784 average: 0.0698222
ExecutionTime = 1.2 s  ClockTime = 2 s

Time = 80

smoothSolver:  Solving for Ux, Initial residual = 0.000170552, Final residual = 7.39044e-06, No Iterations 4
smoothSolver:  Solving for Uy, Initial residual = 0.000839313, Final residual = 4.57855e-05, No Iterations 4
GAMG:  Solving for p, Initial residual = 0.000349125, Final residual = 2.25034e-05, No Iterations 2
time step continuity errors : sum local = 7.90197e-06, global = 1.33504e-16, cumulative = 1.12893e-15
smoothSolver:  Solving for nuTilda, Initial residual = 0.000166627, Final residual = 1.069e-05, No Iterations 4
bounding nuTilda, min: -0.00347677 max: 0.407841 average: 0.0697378
ExecutionTime = 1.21 s  ClockTime = 2 s

forces wings output:
    sum of forces:
        pressure : (-1.27121e-18 0.228648 -1.39906e-36)
        viscous  : (0.247218 1.77191e-05 5.9012e-38)
        porous   : (0 0 0)
    sum of moments:
        pressure : (-0.0114324 -6.35605e-20 -0.00240035)
        viscous  : (-8.85954e-07 0.0123609 -4.95733e-06)
        porous   : (0 0 0)

Time = 81

smoothSolver:  Solving for Ux, Initial residual = 0.000166478, Final residual = 7.08886e-06, No Iterations 4
smoothSolver:  Solving for Uy, Initial residual = 0.000835608, Final residual = 4.61055e-05, No Iterations 4
GAMG:  Solving for p, Initial residual = 0.000353754, Final residual = 2.05884e-05, No Iterations 2
time step continuity errors : sum local = 7.21502e-06, global = 3.33148e-16, cumulative = 1.46208e-15
smoothSolver:  Solving for nuTilda, Initial residual = 0.000160382, Final residual = 1.03118e-05, No Iterations 4
bounding nuTilda, min: -0.00346601 max: 0.407842 average: 0.0696593
ExecutionTime = 1.23 s  ClockTime = 2 s

Time = 82

smoothSolver:  Solving for Ux, Initial residual = 0.000160201, Final residual = 6.66797e-06, No Iterations 4
smoothSolver:  Solving for Uy, Initial residual = 0.000830572, Final residual = 4.62575e-05, No Iterations 4
GAMG:  Solving for p, Initial residual = 0.000359582, Final residual = 1.94134e-05, No Iterations 2
time step continuity errors : sum local = 6.7977e-06, global = 4.65146e-17, cumulative = 1.5086e-15
smoothSolver:  Solving for nuTilda, Initial residual = 0.000154312, Final residual = 9.9403e-06, No Iterations 4
bounding nuTilda, min: -0.00345543 max: 0.407843 average: 0.069587
ExecutionTime = 1.24 s  ClockTime = 2 s

Time = 83

smoothSolver:  Solving for Ux, Initial residual = 0.000154312, Final residual = 6.22975e-06, No Iterations 4
smoothSolver:  Solving for Uy, Initial residual = 0.000811446, Final residual = 4.5538e-05, No Iterations 4
GAMG:  Solving for p, Initial residual = 0.000365601, Final residual = 1.87122e-05, No Iterations 2
time step continuity errors : sum local = 6.55524e-06, global = 1.59849e-16, cumulative = 1.66844e-15
smoothSolver:  Solving for nuTilda, Initial residual = 0.000148564, Final residual = 9.56375e-06, No Iterations 4
bounding nuTilda, min: -0.00344503 max: 0.407844 average: 0.0695213
ExecutionTime = 1.26 s  ClockTime = 2 s

Time = 84

smoothSolver:  Solving for Ux, Initial residual = 0.00015032, Final residual = 5.8833e-06, No Iterations 4
smoothSolver:  Solving for Uy, Initial residual = 0.000781383, Final residual = 4.42218e-05, No Iterations 4
GAMG:  Solving for p, Initial residual = 0.000372516, Final residual = 1.8976e-05, No Iterations 2
time step continuity errors : sum local = 6.65376e-06, global = -4.56988e-17, cumulative = 1.62275e-15
smoothSolver:  Solving for nuTilda, Initial residual = 0.000143108, Final residual = 9.17175e-06, No Iterations 4
bounding nuTilda, min: -0.00343478 max: 0.407845 average: 0.0694623
ExecutionTime = 1.27 s  ClockTime = 2 s

Time = 85

smoothSolver:  Solving for Ux, Initial residual = 0.00014751, Final residual = 5.66923e-06, No Iterations 4
smoothSolver:  Solving for Uy, Initial residual = 0.000752046, Final residual = 4.2686e-05, No Iterations 4
GAMG:  Solving for p, Initial residual = 0.000379804, Final residual = 2.02992e-05, No Iterations 2
time step continuity errors : sum local = 7.12193e-06, global = 4.94667e-18, cumulative = 1.62769e-15
smoothSolver:  Solving for nuTilda, Initial residual = 0.000137695, Final residual = 8.75459e-06, No Iterations 4
bounding nuTilda, min: -0.00342468 max: 0.407846 average: 0.0694098
ExecutionTime = 1.28 s  ClockTime = 2 s

forces wings output:
    sum of forces:
        pressure : (-1.38747e-18 0.237895 -1.3694e-36)
        viscous  : (0.246931 1.8448e-05 5.8072e-38)
        porous   : (0 0 0)
    sum of moments:
        pressure : (-0.0118947 -6.93737e-20 -0.00208906)
        viscous  : (-9.22402e-07 0.0123466 -5.43127e-06)
        porous   : (0 0 0)

Time = 86

smoothSolver:  Solving for Ux, Initial residual = 0.000145374, Final residual = 5.58821e-06, No Iterations 4
smoothSolver:  Solving for Uy, Initial residual = 0.00072433, Final residual = 4.13355e-05, No Iterations 4
GAMG:  Solving for p, Initial residual = 0.000388278, Final residual = 2.09768e-05, No Iterations 2
time step continuity errors : sum local = 7.36275e-06, global = 1.82461e-16, cumulative = 1.81015e-15
smoothSolver:  Solving for nuTilda, Initial residual = 0.000132548, Final residual = 8.31485e-06, No Iterations 4
bounding nuTilda, min: -0.00341471 max: 0.407847 average: 0.0693633
ExecutionTime = 1.3 s  ClockTime = 2 s

Time = 87

smoothSolver:  Solving for Ux, Initial residual = 0.000142358, Final residual = 5.54159e-06, No Iterations 4
smoothSolver:  Solving for Uy, Initial residual = 0.000698803, Final residual = 4.04493e-05, No Iterations 4
GAMG:  Solving for p, Initial residual = 0.000394325, Final residual = 1.96981e-05, No Iterations 2
time step continuity errors : sum local = 6.91672e-06, global = 4.45042e-18, cumulative = 1.8146e-15
smoothSolver:  Solving for nuTilda, Initial residual = 0.000127562, Final residual = 7.86031e-06, No Iterations 4
bounding nuTilda, min: -0.00340488 max: 0.407848 average: 0.069322
ExecutionTime = 1.31 s  ClockTime = 2 s

Time = 88

smoothSolver:  Solving for Ux, Initial residual = 0.00013842, Final residual = 5.47401e-06, No Iterations 4
smoothSolver:  Solving for Uy, Initial residual = 0.000671534, Final residual = 3.98003e-05, No Iterations 4
GAMG:  Solving for p, Initial residual = 0.000399296, Final residual = 3.73865e-05, No Iterations 1
time step continuity errors : sum local = 1.30614e-05, global = 5.94383e-17, cumulative = 1.87404e-15
smoothSolver:  Solving for nuTilda, Initial residual = 0.000122686, Final residual = 7.40379e-06, No Iterations 4
bounding nuTilda, min: -0.00339506 max: 0.407849 average: 0.0692853
ExecutionTime = 1.33 s  ClockTime = 2 s

Time = 89

smoothSolver:  Solving for Ux, Initial residual = 0.000130817, Final residual = 5.16904e-06, No Iterations 4
smoothSolver:  Solving for Uy, Initial residual = 0.000638453, Final residual = 3.90047e-05, No Iterations 4
GAMG:  Solving for p, Initial residual = 0.000403685, Final residual = 1.74947e-05, No Iterations 2
time step continuity errors : sum local = 6.12171e-06, global = 6.95657e-17, cumulative = 1.94361e-15
smoothSolver:  Solving for nuTilda, Initial residual = 0.000118013, Final residual = 6.94936e-06, No Iterations 4
bounding nuTilda, min: -0.00338557 max: 0.40785 average: 0.0692523
ExecutionTime = 1.34 s  ClockTime = 2 s

Time = 90

smoothSolver:  Solving for Ux, Initial residual = 0.000124432, Final residual = 5.00884e-06, No Iterations 4
smoothSolver:  Solving for Uy, Initial residual = 0.000602965, Final residual = 3.73559e-05, No Iterations 4
GAMG:  Solving for p, Initial residual = 0.000391609, Final residual = 3.4454e-05, No Iterations 1
time step continuity errors : sum local = 1.20152e-05, global = 1.39212e-16, cumulative = 2.08282e-15
smoothSolver:  Solving for nuTilda, Initial residual = 0.000113246, Final residual = 6.51071e-06, No Iterations 4
bounding nuTilda, min: -0.00337592 max: 0.407852 average: 0.0692223
ExecutionTime = 1.36 s  ClockTime = 2 s

forces wings output:
    sum of forces:
        pressure : (-1.34707e-18 0.234265 -1.345e-36)
        viscous  : (0.246712 1.93457e-05 5.71773e-38)
        porous   : (0 0 0)
    sum of moments:
        pressure : (-0.0117133 -6.73533e-20 -0.00478746)
        viscous  : (-9.67286e-07 0.0123356 -5.6264e-06)
        porous   : (0 0 0)

Time = 91

smoothSolver:  Solving for Ux, Initial residual = 0.000116164, Final residual = 4.68103e-06, No Iterations 4
smoothSolver:  Solving for Uy, Initial residual = 0.000569511, Final residual = 3.61647e-05, No Iterations 4
GAMG:  Solving for p, Initial residual = 0.000379789, Final residual = 3.62708e-05, No Iterations 1
time step continuity errors : sum local = 1.26328e-05, global = 1.23212e-16, cumulative = 2.20603e-15
smoothSolver:  Solving for nuTilda, Initial residual = 0.000108568, Final residual = 6.08767e-06, No Iterations 4
bounding nuTilda, min: -0.00336648 max: 0.407853 average: 0.0691948
ExecutionTime = 1.37 s  ClockTime = 2 s

Time = 92

smoothSolver:  Solving for Ux, Initial residual = 0.000107619, Final residual = 4.32519e-06, No Iterations 4
smoothSolver:  Solving for Uy, Initial residual = 0.000533345, Final residual = 3.43944e-05, No Iterations 4
GAMG:  Solving for p, Initial residual = 0.000363086, Final residual = 1.54958e-05, No Iterations 2
time step continuity errors : sum local = 5.41661e-06, global = 1.24302e-16, cumulative = 2.33033e-15
smoothSolver:  Solving for nuTilda, Initial residual = 0.000103657, Final residual = 5.67662e-06, No Iterations 4
bounding nuTilda, min: -0.00335722 max: 0.407854 average: 0.0691695
ExecutionTime = 1.39 s  ClockTime = 2 s

Time = 93

smoothSolver:  Solving for Ux, Initial residual = 9.97893e-05, Final residual = 4.03631e-06, No Iterations 4
smoothSolver:  Solving for Uy, Initial residual = 0.000471747, Final residual = 3.01562e-05, No Iterations 4
GAMG:  Solving for p, Initial residual = 0.000332932, Final residual = 3.02141e-05, No Iterations 1
time step continuity errors : sum local = 1.05377e-05, global = 2.13669e-16, cumulative = 2.544e-15
smoothSolver:  Solving for nuTilda, Initial residual = 9.8548e-05, Final residual = 5.28004e-06, No Iterations 4
bounding nuTilda, min: -0.00334783 max: 0.407855 average: 0.069146
ExecutionTime = 1.4 s  ClockTime = 2 s

Time = 94

smoothSolver:  Solving for Ux, Initial residual = 9.2387e-05, Final residual = 3.73576e-06, No Iterations 4
smoothSolver:  Solving for Uy, Initial residual = 0.000439501, Final residual = 2.84368e-05, No Iterations 4
GAMG:  Solving for p, Initial residual = 0.000311752, Final residual = 3.11083e-05, No Iterations 1
time step continuity errors : sum local = 1.08595e-05, global = -2.1209e-16, cumulative = 2.33191e-15
smoothSolver:  Solving for nuTilda, Initial residual = 9.3165e-05, Final residual = 4.89437e-06, No Iterations 4
bounding nuTilda, min: -0.00333866 max: 0.407856 average: 0.0691241
ExecutionTime = 1.42 s  ClockTime = 2 s

Time = 95

smoothSolver:  Solving for Ux, Initial residual = 8.5624e-05, Final residual = 3.4747e-06, No Iterations 4
smoothSolver:  Solving for Uy, Initial residual = 0.000408186, Final residual = 2.68431e-05, No Iterations 4
GAMG:  Solving for p, Initial residual = 0.000290532, Final residual = 1.4477e-05, No Iterations 2
time step continuity errors : sum local = 5.08342e-06, global = -1.04804e-16, cumulative = 2.22711e-15
smoothSolver:  Solving for nuTilda, Initial residual = 8.7717e-05, Final residual = 4.53112e-06, No Iterations 4
bounding nuTilda, min: -0.00332965 max: 0.407857 average: 0.0691035
ExecutionTime = 1.43 s  ClockTime = 2 s

forces wings output:
    sum of forces:
        pressure : (-1.33811e-18 0.237157 -1.32457e-36)
        viscous  : (0.246552 2.01712e-05 5.63872e-38)
        porous   : (0 0 0)
    sum of moments:
        pressure : (-0.0118579 -6.69054e-20 -0.00388168)
        viscous  : (-1.00856e-06 0.0123276 -5.58452e-06)
        porous   : (0 0 0)

Time = 96

smoothSolver:  Solving for Ux, Initial residual = 8.1917e-05, Final residual = 3.42679e-06, No Iterations 4
smoothSolver:  Solving for Uy, Initial residual = 0.000373338, Final residual = 2.4477e-05, No Iterations 4
GAMG:  Solving for p, Initial residual = 0.000262597, Final residual = 2.46799e-05, No Iterations 1
time step continuity errors : sum local = 8.63373e-06, global = 2.26511e-16, cumulative = 2.45362e-15
smoothSolver:  Solving for nuTilda, Initial residual = 8.22237e-05, Final residual = 4.18702e-06, No Iterations 4
bounding nuTilda, min: -0.00332051 max: 0.407859 average: 0.0690842
ExecutionTime = 1.45 s  ClockTime = 2 s

Time = 97

smoothSolver:  Solving for Ux, Initial residual = 7.64344e-05, Final residual = 3.21408e-06, No Iterations 4
smoothSolver:  Solving for Uy, Initial residual = 0.000355857, Final residual = 2.38827e-05, No Iterations 4
GAMG:  Solving for p, Initial residual = 0.000244634, Final residual = 1.13743e-05, No Iterations 2
time step continuity errors : sum local = 3.99821e-06, global = 9.23634e-18, cumulative = 2.46286e-15
smoothSolver:  Solving for nuTilda, Initial residual = 7.65941e-05, Final residual = 3.85831e-06, No Iterations 4
bounding nuTilda, min: -0.00331162 max: 0.40786 average: 0.069066
ExecutionTime = 1.46 s  ClockTime = 2 s

Time = 98

smoothSolver:  Solving for Ux, Initial residual = 7.32767e-05, Final residual = 3.17012e-06, No Iterations 4
smoothSolver:  Solving for Uy, Initial residual = 0.000347474, Final residual = 2.36585e-05, No Iterations 4
GAMG:  Solving for p, Initial residual = 0.000223609, Final residual = 1.95286e-05, No Iterations 1
time step continuity errors : sum local = 6.84057e-06, global = -1.89185e-16, cumulative = 2.27367e-15
smoothSolver:  Solving for nuTilda, Initial residual = 7.10034e-05, Final residual = 3.54685e-06, No Iterations 4
bounding nuTilda, min: -0.00330262 max: 0.407861 average: 0.0690488
ExecutionTime = 1.48 s  ClockTime = 2 s

Time = 99

smoothSolver:  Solving for Ux, Initial residual = 6.79851e-05, Final residual = 2.9403e-06, No Iterations 4
smoothSolver:  Solving for Uy, Initial residual = 0.000335554, Final residual = 2.30945e-05, No Iterations 4
GAMG:  Solving for p, Initial residual = 0.0002064, Final residual = 8.08473e-06, No Iterations 2
time step continuity errors : sum local = 2.84644e-06, global = -2.68385e-18, cumulative = 2.27099e-15
smoothSolver:  Solving for nuTilda, Initial residual = 6.54227e-05, Final residual = 3.24904e-06, No Iterations 4
bounding nuTilda, min: -0.00329383 max: 0.407862 average: 0.0690325
ExecutionTime = 1.49 s  ClockTime = 2 s

Time = 100

smoothSolver:  Solving for Ux, Initial residual = 6.35962e-05, Final residual = 2.78763e-06, No Iterations 4
smoothSolver:  Solving for Uy, Initial residual = 0.000319046, Final residual = 2.1898e-05, No Iterations 4
GAMG:  Solving for p, Initial residual = 0.000185564, Final residual = 1.73348e-05, No Iterations 1
time step continuity errors : sum local = 6.07349e-06, global = 3.6592e-16, cumulative = 2.63691e-15
smoothSolver:  Solving for nuTilda, Initial residual = 5.98759e-05, Final residual = 2.96773e-06, No Iterations 4
bounding nuTilda, min: -0.00328496 max: 0.407863 average: 0.0690171
ExecutionTime = 1.53 s  ClockTime = 2 s

forces wings output:
    sum of forces:
        pressure : (-1.40967e-18 0.240441 -1.34965e-36)
        viscous  : (0.246436 1.98719e-05 5.74472e-38)
        porous   : (0 0 0)
    sum of moments:
        pressure : (-0.012022 -7.04835e-20 -0.00375562)
        viscous  : (-9.93597e-07 0.0123218 -5.77936e-06)
        porous   : (0 0 0)

Time = 101

smoothSolver:  Solving for Ux, Initial residual = 5.90547e-05, Final residual = 2.58741e-06, No Iterations 4
smoothSolver:  Solving for Uy, Initial residual = 0.000303219, Final residual = 2.08898e-05, No Iterations 4
GAMG:  Solving for p, Initial residual = 0.000172085, Final residual = 7.42034e-06, No Iterations 2
time step continuity errors : sum local = 2.61098e-06, global = 1.78445e-16, cumulative = 2.81535e-15
smoothSolver:  Solving for nuTilda, Initial residual = 5.44099e-05, Final residual = 2.70481e-06, No Iterations 4
bounding nuTilda, min: -0.00327623 max: 0.407864 average: 0.0690025
ExecutionTime = 1.55 s  ClockTime = 2 s

Time = 102

smoothSolver:  Solving for Ux, Initial residual = 5.5416e-05, Final residual = 2.45582e-06, No Iterations 4
smoothSolver:  Solving for Uy, Initial residual = 0.000270175, Final residual = 1.86668e-05, No Iterations 4
GAMG:  Solving for p, Initial residual = 0.000154036, Final residual = 1.51888e-05, No Iterations 1
time step continuity errors : sum local = 5.32375e-06, global = -2.34803e-16, cumulative = 2.58055e-15
smoothSolver:  Solving for nuTilda, Initial residual = 4.91529e-05, Final residual = 2.46585e-06, No Iterations 4
bounding nuTilda, min: -0.00326748 max: 0.407865 average: 0.0689886
ExecutionTime = 1.56 s  ClockTime = 2 s

Time = 103

smoothSolver:  Solving for Ux, Initial residual = 5.17509e-05, Final residual = 2.29433e-06, No Iterations 4
smoothSolver:  Solving for Uy, Initial residual = 0.000254635, Final residual = 1.77115e-05, No Iterations 4
GAMG:  Solving for p, Initial residual = 0.000142849, Final residual = 7.25365e-06, No Iterations 2
time step continuity errors : sum local = 2.56542e-06, global = 1.6218e-17, cumulative = 2.59677e-15
smoothSolver:  Solving for nuTilda, Initial residual = 4.41414e-05, Final residual = 2.25144e-06, No Iterations 4
bounding nuTilda, min: -0.00325884 max: 0.407866 average: 0.0689754
ExecutionTime = 1.58 s  ClockTime = 2 s

Time = 104

smoothSolver:  Solving for Ux, Initial residual = 4.99434e-05, Final residual = 2.24835e-06, No Iterations 4
smoothSolver:  Solving for Uy, Initial residual = 0.000237807, Final residual = 1.65648e-05, No Iterations 4
GAMG:  Solving for p, Initial residual = 0.000129748, Final residual = 6.05422e-06, No Iterations 2
time step continuity errors : sum local = 2.15969e-06, global = -1.51358e-16, cumulative = 2.44541e-15
smoothSolver:  Solving for nuTilda, Initial residual = 3.95156e-05, Final residual = 2.06341e-06, No Iterations 4
bounding nuTilda, min: -0.00325022 max: 0.407866 average: 0.0689629
ExecutionTime = 1.59 s  ClockTime = 2 s

Time = 105

smoothSolver:  Solving for Ux, Initial residual = 4.8154e-05, Final residual = 2.19856e-06, No Iterations 4
smoothSolver:  Solving for Uy, Initial residual = 0.000235858, Final residual = 1.63874e-05, No Iterations 4
GAMG:  Solving for p, Initial residual = 0.000120186, Final residual = 5.38341e-06, No Iterations 2
time step continuity errors : sum local = 1.93979e-06, global = 1.81578e-16, cumulative = 2.62699e-15
smoothSolver:  Solving for nuTilda, Initial residual = 3.53253e-05, Final residual = 1.90204e-06, No Iterations 4
bounding nuTilda, min: -0.00324167 max: 0.407867 average: 0.0689509
ExecutionTime = 1.61 s  ClockTime = 2 s

forces wings output:
    sum of forces:
        pressure : (-1.34287e-18 0.236375 -1.32705e-36)
        viscous  : (0.246357 2.00783e-05 5.65368e-38)
        porous   : (0 0 0)
    sum of moments:
        pressure : (-0.0118187 -6.71435e-20 -0.00431678)
        viscous  : (-1.00391e-06 0.0123179 -5.66207e-06)
        porous   : (0 0 0)

Time = 106

smoothSolver:  Solving for Ux, Initial residual = 4.5851e-05, Final residual = 2.12339e-06, No Iterations 4
smoothSolver:  Solving for Uy, Initial residual = 0.000234672, Final residual = 1.63953e-05, No Iterations 4
GAMG:  Solving for p, Initial residual = 0.000112007, Final residual = 5.39894e-06, No Iterations 2
time step continuity errors : sum local = 1.95741e-06, global = -1.35856e-16, cumulative = 2.49113e-15
smoothSolver:  Solving for nuTilda, Initial residual = 3.16199e-05, Final residual = 1.76608e-06, No Iterations 4
bounding nuTilda, min: -0.00323318 max: 0.407868 average: 0.0689395
ExecutionTime = 1.62 s  ClockTime = 2 s

Time = 107

smoothSolver:  Solving for Ux, Initial residual = 4.34497e-05, Final residual = 2.03955e-06, No Iterations 4
smoothSolver:  Solving for Uy, Initial residual = 0.000230077, Final residual = 1.61885e-05, No Iterations 4
GAMG:  Solving for p, Initial residual = 0.000103409, Final residual = 5.00754e-06, No Iterations 2
time step continuity errors : sum local = 1.8193e-06, global = -6.52881e-17, cumulative = 2.42584e-15
smoothSolver:  Solving for nuTilda, Initial residual = 2.84001e-05, Final residual = 1.65201e-06, No Iterations 4
bounding nuTilda, min: -0.00322477 max: 0.407869 average: 0.0689287
ExecutionTime = 1.64 s  ClockTime = 2 s

Time = 108

smoothSolver:  Solving for Ux, Initial residual = 4.09958e-05, Final residual = 1.94399e-06, No Iterations 4
smoothSolver:  Solving for Uy, Initial residual = 0.000220457, Final residual = 1.55311e-05, No Iterations 4
GAMG:  Solving for p, Initial residual = 9.60988e-05, Final residual = 4.27011e-06, No Iterations 2
time step continuity errors : sum local = 1.55571e-06, global = 1.18668e-16, cumulative = 2.54451e-15
smoothSolver:  Solving for nuTilda, Initial residual = 2.56534e-05, Final residual = 1.55582e-06, No Iterations 4
bounding nuTilda, min: -0.00321642 max: 0.407869 average: 0.0689183
ExecutionTime = 1.65 s  ClockTime = 2 s

Time = 109

smoothSolver:  Solving for Ux, Initial residual = 3.87724e-05, Final residual = 1.84791e-06, No Iterations 4
smoothSolver:  Solving for Uy, Initial residual = 0.000207523, Final residual = 1.46083e-05, No Iterations 4
GAMG:  Solving for p, Initial residual = 8.92589e-05, Final residual = 4.03526e-06, No Iterations 2
time step continuity errors : sum local = 1.46631e-06, global = -2.10725e-17, cumulative = 2.52344e-15
smoothSolver:  Solving for nuTilda, Initial residual = 2.33317e-05, Final residual = 1.47304e-06, No Iterations 4
bounding nuTilda, min: -0.00320814 max: 0.40787 average: 0.0689084
ExecutionTime = 1.66 s  ClockTime = 2 s

Time = 110

smoothSolver:  Solving for Ux, Initial residual = 3.70094e-05, Final residual = 1.77559e-06, No Iterations 4
smoothSolver:  Solving for Uy, Initial residual = 0.000194798, Final residual = 1.37389e-05, No Iterations 4
GAMG:  Solving for p, Initial residual = 8.18557e-05, Final residual = 4.0572e-06, No Iterations 2
time step continuity errors : sum local = 1.46624e-06, global = 6.06456e-17, cumulative = 2.58409e-15
smoothSolver:  Solving for nuTilda, Initial residual = 2.13917e-05, Final residual = 1.39999e-06, No Iterations 4
bounding nuTilda, min: -0.00319993 max: 0.40787 average: 0.068899
ExecutionTime = 1.68 s  ClockTime = 2 s

forces wings output:
    sum of forces:
        pressure : (-1.3833e-18 0.239665 -1.33489e-36)
[...]
time step continuity errors : sum local = 1.75377e-07, global = -1.48277e-16, cumulative = 1.0828e-14
smoothSolver:  Solving for nuTilda, Initial residual = 1.98141e-07, Final residual = 4.70518e-10, No Iterations 2
bounding nuTilda, min: -0.00288992 max: 0.40788 average: 0.0687095
ExecutionTime = 6.82 s  ClockTime = 7 s

Time = 474

smoothSolver:  Solving for Ux, Initial residual = 1.56525e-07, Final residual = 4.65392e-09, No Iterations 4
smoothSolver:  Solving for Uy, Initial residual = 1.36017e-06, Final residual = 4.271e-08, No Iterations 4
GAMG:  Solving for p, Initial residual = 1.18608e-06, Final residual = 5.74928e-07, No Iterations 1
time step continuity errors : sum local = 2.01189e-07, global = 6.18915e-17, cumulative = 1.08899e-14
smoothSolver:  Solving for nuTilda, Initial residual = 1.98157e-07, Final residual = 4.70528e-10, No Iterations 2
bounding nuTilda, min: -0.00288992 max: 0.40788 average: 0.0687095
ExecutionTime = 6.83 s  ClockTime = 7 s

Time = 475

smoothSolver:  Solving for Ux, Initial residual = 1.32395e-07, Final residual = 4.07892e-09, No Iterations 4
smoothSolver:  Solving for Uy, Initial residual = 1.1326e-06, Final residual = 3.66061e-08, No Iterations 4
GAMG:  Solving for p, Initial residual = 1.14368e-06, Final residual = 5.75495e-07, No Iterations 1
time step continuity errors : sum local = 2.01483e-07, global = 1.36568e-16, cumulative = 1.10264e-14
smoothSolver:  Solving for nuTilda, Initial residual = 1.9812e-07, Final residual = 4.64845e-10, No Iterations 2
bounding nuTilda, min: -0.00288992 max: 0.40788 average: 0.0687095
ExecutionTime = 6.85 s  ClockTime = 7 s

forces wings output:
    sum of forces:
        pressure : (-1.39174e-18 0.238959 -1.34458e-36)
        viscous  : (0.246303 1.99583e-05 5.72637e-38)
        porous   : (0 0 0)
    sum of moments:
        pressure : (-0.011948 -6.9587e-20 5.45967e-05)
        viscous  : (-9.97913e-07 0.0123151 -5.52083e-06)
        porous   : (0 0 0)

Time = 476

smoothSolver:  Solving for Ux, Initial residual = 1.33227e-07, Final residual = 3.99612e-09, No Iterations 4
smoothSolver:  Solving for Uy, Initial residual = 1.16357e-06, Final residual = 3.63312e-08, No Iterations 4
GAMG:  Solving for p, Initial residual = 1.06153e-06, Final residual = 5.24772e-07, No Iterations 1
time step continuity errors : sum local = 1.83817e-07, global = -1.84412e-16, cumulative = 1.0842e-14
smoothSolver:  Solving for nuTilda, Initial residual = 1.98074e-07, Final residual = 4.62135e-10, No Iterations 2
bounding nuTilda, min: -0.00288992 max: 0.40788 average: 0.0687095
ExecutionTime = 6.86 s  ClockTime = 7 s

Time = 477

smoothSolver:  Solving for Ux, Initial residual = 1.3898e-07, Final residual = 4.20272e-09, No Iterations 4
smoothSolver:  Solving for Uy, Initial residual = 1.22768e-06, Final residual = 3.76856e-08, No Iterations 4
GAMG:  Solving for p, Initial residual = 1.04617e-06, Final residual = 5.13547e-07, No Iterations 1
time step continuity errors : sum local = 1.79839e-07, global = 3.02346e-16, cumulative = 1.11444e-14
smoothSolver:  Solving for nuTilda, Initial residual = 1.98054e-07, Final residual = 4.67663e-10, No Iterations 2
bounding nuTilda, min: -0.00288992 max: 0.40788 average: 0.0687095
ExecutionTime = 6.88 s  ClockTime = 7 s

Time = 478

smoothSolver:  Solving for Ux, Initial residual = 1.33681e-07, Final residual = 4.03477e-09, No Iterations 4
smoothSolver:  Solving for Uy, Initial residual = 1.14369e-06, Final residual = 3.5131e-08, No Iterations 4
GAMG:  Solving for p, Initial residual = 1.05292e-06, Final residual = 5.27009e-07, No Iterations 1
time step continuity errors : sum local = 1.84412e-07, global = 7.33741e-17, cumulative = 1.12177e-14
smoothSolver:  Solving for nuTilda, Initial residual = 1.98055e-07, Final residual = 4.71816e-10, No Iterations 2
bounding nuTilda, min: -0.00288992 max: 0.40788 average: 0.0687095
ExecutionTime = 6.89 s  ClockTime = 7 s

Time = 479

smoothSolver:  Solving for Ux, Initial residual = 1.27015e-07, Final residual = 3.7968e-09, No Iterations 4
smoothSolver:  Solving for Uy, Initial residual = 1.0716e-06, Final residual = 3.32116e-08, No Iterations 4
GAMG:  Solving for p, Initial residual = 1.0325e-06, Final residual = 5.17512e-07, No Iterations 1
time step continuity errors : sum local = 1.80964e-07, global = 6.26358e-17, cumulative = 1.12804e-14
smoothSolver:  Solving for nuTilda, Initial residual = 1.98036e-07, Final residual = 4.71217e-10, No Iterations 2
bounding nuTilda, min: -0.00288992 max: 0.40788 average: 0.0687095
ExecutionTime = 6.91 s  ClockTime = 7 s

Time = 480

smoothSolver:  Solving for Ux, Initial residual = 1.25159e-07, Final residual = 3.76813e-09, No Iterations 4
smoothSolver:  Solving for Uy, Initial residual = 1.10745e-06, Final residual = 3.59926e-08, No Iterations 4
GAMG:  Solving for p, Initial residual = 1.00784e-06, Final residual = 4.93401e-07, No Iterations 1
time step continuity errors : sum local = 1.72449e-07, global = 5.51729e-17, cumulative = 1.13355e-14
smoothSolver:  Solving for nuTilda, Initial residual = 1.98018e-07, Final residual = 4.68985e-10, No Iterations 2
bounding nuTilda, min: -0.00288992 max: 0.40788 average: 0.0687095
ExecutionTime = 6.92 s  ClockTime = 7 s

forces wings output:
    sum of forces:
        pressure : (-1.39184e-18 0.238971 -1.34444e-36)
        viscous  : (0.246303 1.99586e-05 5.7256e-38)
        porous   : (0 0 0)
    sum of moments:
        pressure : (-0.0119485 -6.95922e-20 5.45947e-05)
        viscous  : (-9.97928e-07 0.0123151 -5.51846e-06)
        porous   : (0 0 0)

Time = 481

smoothSolver:  Solving for Ux, Initial residual = 1.27366e-07, Final residual = 4.03434e-09, No Iterations 4
smoothSolver:  Solving for Uy, Initial residual = 1.1414e-06, Final residual = 3.81584e-08, No Iterations 4
GAMG:  Solving for p, Initial residual = 9.79003e-07, Final residual = 9.79003e-07, No Iterations 0
time step continuity errors : sum local = 3.41841e-07, global = -9.33085e-17, cumulative = 1.12422e-14
smoothSolver:  Solving for nuTilda, Initial residual = 1.98379e-07, Final residual = 5.28034e-10, No Iterations 2
bounding nuTilda, min: -0.00288992 max: 0.40788 average: 0.0687095
ExecutionTime = 6.94 s  ClockTime = 7 s

Time = 482

smoothSolver:  Solving for Ux, Initial residual = 1.17356e-07, Final residual = 3.73657e-09, No Iterations 4
smoothSolver:  Solving for Uy, Initial residual = 1.03129e-06, Final residual = 3.58071e-08, No Iterations 4
GAMG:  Solving for p, Initial residual = 1.38479e-06, Final residual = 7.13904e-07, No Iterations 1
time step continuity errors : sum local = 2.49262e-07, global = 2.62999e-16, cumulative = 1.15052e-14
smoothSolver:  Solving for nuTilda, Initial residual = 1.98113e-07, Final residual = 4.82865e-10, No Iterations 2
bounding nuTilda, min: -0.00288992 max: 0.40788 average: 0.0687095
ExecutionTime = 6.95 s  ClockTime = 7 s

Time = 483

smoothSolver:  Solving for Ux, Initial residual = 1.13791e-07, Final residual = 3.34495e-09, No Iterations 4
smoothSolver:  Solving for Uy, Initial residual = 8.89995e-07, Final residual = 2.59055e-08, No Iterations 4
GAMG:  Solving for p, Initial residual = 1.01457e-06, Final residual = 5.25349e-07, No Iterations 1
time step continuity errors : sum local = 1.83596e-07, global = 4.04569e-17, cumulative = 1.15457e-14
smoothSolver:  Solving for nuTilda, Initial residual = 1.98057e-07, Final residual = 4.71028e-10, No Iterations 2
bounding nuTilda, min: -0.00288992 max: 0.40788 average: 0.0687095
ExecutionTime = 6.97 s  ClockTime = 7 s

Time = 484

smoothSolver:  Solving for Ux, Initial residual = 1.6058e-07, Final residual = 4.50435e-09, No Iterations 4
smoothSolver:  Solving for Uy, Initial residual = 1.33816e-06, Final residual = 3.83266e-08, No Iterations 4
GAMG:  Solving for p, Initial residual = 9.91872e-07, Final residual = 9.91872e-07, No Iterations 0
time step continuity errors : sum local = 3.46247e-07, global = 1.51691e-16, cumulative = 1.16974e-14
smoothSolver:  Solving for nuTilda, Initial residual = 1.98346e-07, Final residual = 5.1507e-10, No Iterations 2
bounding nuTilda, min: -0.00288992 max: 0.40788 average: 0.0687095
ExecutionTime = 6.98 s  ClockTime = 7 s

Time = 485

smoothSolver:  Solving for Ux, Initial residual = 1.43747e-07, Final residual = 4.08807e-09, No Iterations 4
smoothSolver:  Solving for Uy, Initial residual = 1.19082e-06, Final residual = 3.54017e-08, No Iterations 4
GAMG:  Solving for p, Initial residual = 1.55026e-06, Final residual = 7.7262e-07, No Iterations 1
time step continuity errors : sum local = 2.6999e-07, global = 3.19885e-16, cumulative = 1.20173e-14
smoothSolver:  Solving for nuTilda, Initial residual = 1.98123e-07, Final residual = 4.70951e-10, No Iterations 2
bounding nuTilda, min: -0.00288992 max: 0.40788 average: 0.0687095
ExecutionTime = 7 s  ClockTime = 8 s

forces wings output:
    sum of forces:
        pressure : (-1.39029e-18 0.238944 -1.34137e-36)
        viscous  : (0.246303 1.99658e-05 5.71246e-38)
        porous   : (0 0 0)
    sum of moments:
        pressure : (-0.0119472 -6.95146e-20 5.41605e-05)
        viscous  : (-9.9829e-07 0.0123151 -5.51608e-06)
        porous   : (0 0 0)

Time = 486

smoothSolver:  Solving for Ux, Initial residual = 1.16378e-07, Final residual = 3.58156e-09, No Iterations 4
smoothSolver:  Solving for Uy, Initial residual = 1.0128e-06, Final residual = 3.51305e-08, No Iterations 4
GAMG:  Solving for p, Initial residual = 1.16153e-06, Final residual = 5.91768e-07, No Iterations 1
time step continuity errors : sum local = 2.07058e-07, global = 3.63274e-19, cumulative = 1.20176e-14
smoothSolver:  Solving for nuTilda, Initial residual = 1.98077e-07, Final residual = 4.71221e-10, No Iterations 2
bounding nuTilda, min: -0.00288992 max: 0.40788 average: 0.0687095
ExecutionTime = 7.01 s  ClockTime = 8 s

Time = 487

smoothSolver:  Solving for Ux, Initial residual = 1.76774e-07, Final residual = 5.38312e-09, No Iterations 4
smoothSolver:  Solving for Uy, Initial residual = 1.4961e-06, Final residual = 4.70508e-08, No Iterations 4
GAMG:  Solving for p, Initial residual = 1.06701e-06, Final residual = 5.0165e-07, No Iterations 1
time step continuity errors : sum local = 1.75719e-07, global = -3.46443e-17, cumulative = 1.1983e-14
smoothSolver:  Solving for nuTilda, Initial residual = 1.98165e-07, Final residual = 4.88351e-10, No Iterations 2
bounding nuTilda, min: -0.00288992 max: 0.40788 average: 0.0687095
ExecutionTime = 7.03 s  ClockTime = 8 s

Time = 488

smoothSolver:  Solving for Ux, Initial residual = 1.61418e-07, Final residual = 5.11312e-09, No Iterations 4
smoothSolver:  Solving for Uy, Initial residual = 1.38429e-06, Final residual = 4.28679e-08, No Iterations 4
GAMG:  Solving for p, Initial residual = 1.17455e-06, Final residual = 5.89814e-07, No Iterations 1
time step continuity errors : sum local = 2.06456e-07, global = -1.78838e-18, cumulative = 1.19812e-14
smoothSolver:  Solving for nuTilda, Initial residual = 1.98262e-07, Final residual = 5.06682e-10, No Iterations 2
bounding nuTilda, min: -0.00288992 max: 0.40788 average: 0.0687095
ExecutionTime = 7.04 s  ClockTime = 8 s

Time = 489

smoothSolver:  Solving for Ux, Initial residual = 1.29354e-07, Final residual = 3.95929e-09, No Iterations 4
smoothSolver:  Solving for Uy, Initial residual = 1.0896e-06, Final residual = 3.12995e-08, No Iterations 4
GAMG:  Solving for p, Initial residual = 1.14829e-06, Final residual = 5.9983e-07, No Iterations 1
time step continuity errors : sum local = 2.09872e-07, global = -2.18129e-16, cumulative = 1.17631e-14
smoothSolver:  Solving for nuTilda, Initial residual = 1.98267e-07, Final residual = 5.10839e-10, No Iterations 2
bounding nuTilda, min: -0.00288992 max: 0.40788 average: 0.0687095
ExecutionTime = 7.06 s  ClockTime = 8 s

Time = 490

smoothSolver:  Solving for Ux, Initial residual = 1.31108e-07, Final residual = 3.77519e-09, No Iterations 4
smoothSolver:  Solving for Uy, Initial residual = 1.12257e-06, Final residual = 3.21665e-08, No Iterations 4
GAMG:  Solving for p, Initial residual = 1.08267e-06, Final residual = 5.42939e-07, No Iterations 1
time step continuity errors : sum local = 1.89912e-07, global = 9.9995e-17, cumulative = 1.18631e-14
smoothSolver:  Solving for nuTilda, Initial residual = 1.98209e-07, Final residual = 5.0509e-10, No Iterations 2
bounding nuTilda, min: -0.00288992 max: 0.40788 average: 0.0687095
ExecutionTime = 7.07 s  ClockTime = 8 s

forces wings output:
    sum of forces:
        pressure : (-1.39299e-18 0.238988 -1.3473e-36)
        viscous  : (0.246303 1.99541e-05 5.73772e-38)
        porous   : (0 0 0)
    sum of moments:
        pressure : (-0.0119494 -6.96497e-20 5.77383e-05)
        viscous  : (-9.97707e-07 0.0123151 -5.52196e-06)
        porous   : (0 0 0)

Time = 491

smoothSolver:  Solving for Ux, Initial residual = 1.44049e-07, Final residual = 4.52841e-09, No Iterations 4
smoothSolver:  Solving for Uy, Initial residual = 1.27213e-06, Final residual = 4.08459e-08, No Iterations 4
GAMG:  Solving for p, Initial residual = 1.06602e-06, Final residual = 5.1783e-07, No Iterations 1
time step continuity errors : sum local = 1.81033e-07, global = 4.6658e-17, cumulative = 1.19097e-14
smoothSolver:  Solving for nuTilda, Initial residual = 1.98166e-07, Final residual = 4.9782e-10, No Iterations 2
bounding nuTilda, min: -0.00288992 max: 0.40788 average: 0.0687095
ExecutionTime = 7.09 s  ClockTime = 8 s

Time = 492

smoothSolver:  Solving for Ux, Initial residual = 1.44168e-07, Final residual = 4.87344e-09, No Iterations 4
smoothSolver:  Solving for Uy, Initial residual = 1.26723e-06, Final residual = 4.35494e-08, No Iterations 4
GAMG:  Solving for p, Initial residual = 1.06165e-06, Final residual = 5.29789e-07, No Iterations 1
time step continuity errors : sum local = 1.85104e-07, global = -1.15867e-16, cumulative = 1.17938e-14
smoothSolver:  Solving for nuTilda, Initial residual = 1.98158e-07, Final residual = 4.94811e-10, No Iterations 2
bounding nuTilda, min: -0.00288992 max: 0.40788 average: 0.0687095
ExecutionTime = 7.1 s  ClockTime = 8 s

Time = 493

smoothSolver:  Solving for Ux, Initial residual = 1.35009e-07, Final residual = 4.50198e-09, No Iterations 4
smoothSolver:  Solving for Uy, Initial residual = 1.15887e-06, Final residual = 3.85478e-08, No Iterations 4
GAMG:  Solving for p, Initial residual = 1.03375e-06, Final residual = 5.32512e-07, No Iterations 1
time step continuity errors : sum local = 1.86009e-07, global = 9.08664e-18, cumulative = 1.18029e-14
smoothSolver:  Solving for nuTilda, Initial residual = 1.98136e-07, Final residual = 4.92373e-10, No Iterations 2
bounding nuTilda, min: -0.00288992 max: 0.40788 average: 0.0687095
ExecutionTime = 7.12 s  ClockTime = 8 s

Time = 494

smoothSolver:  Solving for Ux, Initial residual = 1.25861e-07, Final residual = 3.78735e-09, No Iterations 4
smoothSolver:  Solving for Uy, Initial residual = 1.0834e-06, Final residual = 3.18541e-08, No Iterations 4
GAMG:  Solving for p, Initial residual = 1.00725e-06, Final residual = 5.203e-07, No Iterations 1
time step continuity errors : sum local = 1.81794e-07, global = -5.93702e-17, cumulative = 1.17436e-14
smoothSolver:  Solving for nuTilda, Initial residual = 1.98138e-07, Final residual = 4.84832e-10, No Iterations 2
bounding nuTilda, min: -0.00288992 max: 0.40788 average: 0.0687095
ExecutionTime = 7.14 s  ClockTime = 8 s

Time = 495

smoothSolver:  Solving for Ux, Initial residual = 1.23867e-07, Final residual = 3.58632e-09, No Iterations 4
smoothSolver:  Solving for Uy, Initial residual = 1.1277e-06, Final residual = 3.50477e-08, No Iterations 4
GAMG:  Solving for p, Initial residual = 9.87396e-07, Final residual = 9.87396e-07, No Iterations 0
time step continuity errors : sum local = 3.44645e-07, global = 8.99817e-17, cumulative = 1.18335e-14
smoothSolver:  Solving for nuTilda, Initial residual = 1.98521e-07, Final residual = 5.33068e-10, No Iterations 2
bounding nuTilda, min: -0.00288992 max: 0.40788 average: 0.0687095
ExecutionTime = 7.15 s  ClockTime = 8 s

forces wings output:
    sum of forces:
        pressure : (-1.39002e-18 0.238944 -1.34094e-36)
        viscous  : (0.246303 1.99671e-05 5.71088e-38)
        porous   : (0 0 0)
    sum of moments:
        pressure : (-0.0119472 -6.95012e-20 5.36159e-05)
        viscous  : (-9.98353e-07 0.0123151 -5.51414e-06)
        porous   : (0 0 0)

Time = 496

smoothSolver:  Solving for Ux, Initial residual = 1.13435e-07, Final residual = 3.2671e-09, No Iterations 4
smoothSolver:  Solving for Uy, Initial residual = 1.0051e-06, Final residual = 3.23924e-08, No Iterations 4
GAMG:  Solving for p, Initial residual = 1.39077e-06, Final residual = 7.18822e-07, No Iterations 1
time step continuity errors : sum local = 2.51168e-07, global = -1.37346e-16, cumulative = 1.16962e-14
smoothSolver:  Solving for nuTilda, Initial residual = 1.9823e-07, Final residual = 4.93406e-10, No Iterations 2
bounding nuTilda, min: -0.00288992 max: 0.40788 average: 0.0687095
ExecutionTime = 7.17 s  ClockTime = 8 s

Time = 497

smoothSolver:  Solving for Ux, Initial residual = 1.20094e-07, Final residual = 3.74416e-09, No Iterations 4
smoothSolver:  Solving for Uy, Initial residual = 1.00105e-06, Final residual = 3.38272e-08, No Iterations 4
GAMG:  Solving for p, Initial residual = 1.02726e-06, Final residual = 5.1415e-07, No Iterations 1
time step continuity errors : sum local = 1.79944e-07, global = 3.12206e-17, cumulative = 1.17274e-14
smoothSolver:  Solving for nuTilda, Initial residual = 1.98213e-07, Final residual = 4.91628e-10, No Iterations 2
bounding nuTilda, min: -0.00288992 max: 0.40788 average: 0.0687095
ExecutionTime = 7.18 s  ClockTime = 8 s

Time = 498

smoothSolver:  Solving for Ux, Initial residual = 1.70578e-07, Final residual = 5.35337e-09, No Iterations 4
smoothSolver:  Solving for Uy, Initial residual = 1.42436e-06, Final residual = 4.56983e-08, No Iterations 4
GAMG:  Solving for p, Initial residual = 9.95131e-07, Final residual = 9.95131e-07, No Iterations 0
time step continuity errors : sum local = 3.47491e-07, global = -5.35367e-17, cumulative = 1.16739e-14
smoothSolver:  Solving for nuTilda, Initial residual = 1.98586e-07, Final residual = 5.50269e-10, No Iterations 2
bounding nuTilda, min: -0.00288992 max: 0.40788 average: 0.0687095
ExecutionTime = 7.19 s  ClockTime = 8 s

Time = 499

smoothSolver:  Solving for Ux, Initial residual = 1.53531e-07, Final residual = 4.93279e-09, No Iterations 4
smoothSolver:  Solving for Uy, Initial residual = 1.2825e-06, Final residual = 4.309e-08, No Iterations 4
GAMG:  Solving for p, Initial residual = 1.522e-06, Final residual = 7.61978e-07, No Iterations 1
time step continuity errors : sum local = 2.66469e-07, global = -2.27465e-17, cumulative = 1.16511e-14
smoothSolver:  Solving for nuTilda, Initial residual = 1.98369e-07, Final residual = 5.26307e-10, No Iterations 2
bounding nuTilda, min: -0.00288992 max: 0.40788 average: 0.0687095
ExecutionTime = 7.21 s  ClockTime = 8 s

Time = 500

smoothSolver:  Solving for Ux, Initial residual = 1.14017e-07, Final residual = 3.47516e-09, No Iterations 4
smoothSolver:  Solving for Uy, Initial residual = 9.44527e-07, Final residual = 2.86757e-08, No Iterations 4
GAMG:  Solving for p, Initial residual = 1.15652e-06, Final residual = 6.10333e-07, No Iterations 1
time step continuity errors : sum local = 2.13571e-07, global = 5.00975e-17, cumulative = 1.17012e-14
smoothSolver:  Solving for nuTilda, Initial residual = 1.9827e-07, Final residual = 5.14224e-10, No Iterations 2
bounding nuTilda, min: -0.00288992 max: 0.40788 average: 0.0687095
ExecutionTime = 7.25 s  ClockTime = 8 s

forces wings output:
    sum of forces:
        pressure : (-1.39363e-18 0.238974 -1.34727e-36)
        viscous  : (0.246303 1.99541e-05 5.73781e-38)
        porous   : (0 0 0)
    sum of moments:
        pressure : (-0.0119487 -6.96813e-20 5.41878e-05)
        viscous  : (-9.97703e-07 0.0123151 -5.52362e-06)
        porous   : (0 0 0)

End

