/*---------------------------------------------------------------------------*\
| =========                 |                                                 |
| \\      /  F ield         | OpenFOAM: The Open Source CFD Toolbox           |
|  \\    /   O peration     | Version:  2.3.0                                 |
|   \\  /    A nd           | Web:      www.OpenFOAM.org                      |
|    \\/     M anipulation  |                                                 |
\*---------------------------------------------------------------------------*/
Build  : 2.3.0-f5222ca19ce6
Exec   : simpleFoam -case Runs/first_arc_300_10/case
Date   : Jan 12 2015
Time   : 01:07:21
Host   : "lordvon-XPS-8300"
PID    : 10233
Case   : Runs/first_arc_300_10/case
nProcs : 1
sigFpe : Enabling floating point exception trapping (FOAM_SIGFPE).
fileModificationChecking : Monitoring run-time modified files using timeStampMaster
allowSystemOperations : Disallowing user-supplied system call operations

// * * * * * * * * * * * * * * * * * * * * * * * * * * * * * * * * * * * * * //
Create time

Create mesh for time = 0

Reading field p

Reading field U

Reading/calculating face flux field phi

Selecting incompressible transport model Newtonian
Selecting RAS turbulence model SpalartAllmaras
SpalartAllmarasCoeffs
{
    sigmaNut        0.66666;
    kappa           0.41;
    Cb1             0.1355;
    Cb2             0.622;
    Cw2             0.3;
    Cw3             2;
    Cv1             7.1;
    Cv2             5;
}

    Employing Ashford correction
No finite volume options present


SIMPLE: convergence criteria
    field p	 tolerance 1e-12
    field U	 tolerance 1e-12
    field nuTilda	 tolerance 1e-12


Starting time loop

forces wings:
    Not including porosity effects

Time = 1

smoothSolver:  Solving for Ux, Initial residual = 1, Final residual = 0.00410886, No Iterations 6
smoothSolver:  Solving for Uy, Initial residual = 1, Final residual = 0.00805543, No Iterations 4
GAMG:  Solving for p, Initial residual = 1, Final residual = 0.00789404, No Iterations 9
time step continuity errors : sum local = 0.0008542, global = -7.61164e-17, cumulative = -7.61164e-17
smoothSolver:  Solving for nuTilda, Initial residual = 1, Final residual = 0.00391708, No Iterations 4
ExecutionTime = 0.35 s  ClockTime = 0 s

Time = 2

smoothSolver:  Solving for Ux, Initial residual = 0.551072, Final residual = 0.00283869, No Iterations 8
smoothSolver:  Solving for Uy, Initial residual = 0.602562, Final residual = 0.00335537, No Iterations 8
GAMG:  Solving for p, Initial residual = 0.770118, Final residual = 0.00544343, No Iterations 6
time step continuity errors : sum local = 0.00129139, global = -1.43145e-16, cumulative = -2.19261e-16
smoothSolver:  Solving for nuTilda, Initial residual = 0.186205, Final residual = 0.000707496, No Iterations 6
ExecutionTime = 0.43 s  ClockTime = 0 s

Time = 3

smoothSolver:  Solving for Ux, Initial residual = 0.189689, Final residual = 0.000957629, No Iterations 8
smoothSolver:  Solving for Uy, Initial residual = 0.189518, Final residual = 0.0010398, No Iterations 8
GAMG:  Solving for p, Initial residual = 0.598875, Final residual = 0.0050962, No Iterations 7
time step continuity errors : sum local = 0.00167198, global = -6.84521e-17, cumulative = -2.87713e-16
smoothSolver:  Solving for nuTilda, Initial residual = 0.0953012, Final residual = 0.000840386, No Iterations 6
ExecutionTime = 0.52 s  ClockTime = 1 s

Time = 4

smoothSolver:  Solving for Ux, Initial residual = 0.0619583, Final residual = 0.000260216, No Iterations 8
smoothSolver:  Solving for Uy, Initial residual = 0.0565919, Final residual = 0.000289128, No Iterations 8
GAMG:  Solving for p, Initial residual = 0.485877, Final residual = 0.00360788, No Iterations 6
time step continuity errors : sum local = 0.00116939, global = 1.25382e-19, cumulative = -2.87588e-16
smoothSolver:  Solving for nuTilda, Initial residual = 0.0724156, Final residual = 0.00020143, No Iterations 8
ExecutionTime = 0.61 s  ClockTime = 1 s

Time = 5

smoothSolver:  Solving for Ux, Initial residual = 0.188654, Final residual = 0.00095427, No Iterations 8
smoothSolver:  Solving for Uy, Initial residual = 0.204046, Final residual = 0.0010914, No Iterations 8
GAMG:  Solving for p, Initial residual = 0.439024, Final residual = 0.00420968, No Iterations 6
time step continuity errors : sum local = 0.00144458, global = 1.98039e-16, cumulative = -8.95491e-17
smoothSolver:  Solving for nuTilda, Initial residual = 0.0595992, Final residual = 0.000183499, No Iterations 8
ExecutionTime = 0.7 s  ClockTime = 1 s

forces wings output:
    sum of forces:
        pressure : (-353.692 -1182.75 -9.63487e-19)
        viscous  : (0.523762 -0.0630816 -5.26442e-20)
        porous   : (0 0 0)
    sum of moments:
        pressure : (59.1375 -17.6846 -573.273)
        viscous  : (0.00315408 0.0261881 -0.0338088)
        porous   : (0 0 0)

Time = 6

smoothSolver:  Solving for Ux, Initial residual = 0.160616, Final residual = 0.000777578, No Iterations 8
smoothSolver:  Solving for Uy, Initial residual = 0.184155, Final residual = 0.000975261, No Iterations 8
GAMG:  Solving for p, Initial residual = 0.362855, Final residual = 0.00279364, No Iterations 8
time step continuity errors : sum local = 0.000979955, global = 9.10435e-17, cumulative = 1.49436e-18
smoothSolver:  Solving for nuTilda, Initial residual = 0.0496518, Final residual = 0.000159351, No Iterations 8
ExecutionTime = 0.8 s  ClockTime = 1 s

Time = 7

smoothSolver:  Solving for Ux, Initial residual = 0.117983, Final residual = 0.000522113, No Iterations 8
smoothSolver:  Solving for Uy, Initial residual = 0.146824, Final residual = 0.000756003, No Iterations 8
GAMG:  Solving for p, Initial residual = 0.275387, Final residual = 0.00119413, No Iterations 6
time step continuity errors : sum local = 0.00040967, global = 4.63547e-17, cumulative = 4.78491e-17
smoothSolver:  Solving for nuTilda, Initial residual = 0.0415574, Final residual = 0.000137289, No Iterations 8
ExecutionTime = 0.88 s  ClockTime = 1 s

Time = 8

smoothSolver:  Solving for Ux, Initial residual = 0.130402, Final residual = 0.000634965, No Iterations 8
smoothSolver:  Solving for Uy, Initial residual = 0.148284, Final residual = 0.000777267, No Iterations 8
GAMG:  Solving for p, Initial residual = 0.296086, Final residual = 0.00256745, No Iterations 6
time step continuity errors : sum local = 0.000934316, global = -1.54968e-16, cumulative = -1.07119e-16
smoothSolver:  Solving for nuTilda, Initial residual = 0.0349986, Final residual = 0.00011867, No Iterations 8
ExecutionTime = 0.97 s  ClockTime = 1 s

Time = 9

smoothSolver:  Solving for Ux, Initial residual = 0.0475842, Final residual = 0.000207818, No Iterations 8
smoothSolver:  Solving for Uy, Initial residual = 0.0391952, Final residual = 0.000198695, No Iterations 8
GAMG:  Solving for p, Initial residual = 0.23745, Final residual = 0.00107756, No Iterations 7
time step continuity errors : sum local = 0.000384888, global = 2.48562e-16, cumulative = 1.41443e-16
smoothSolver:  Solving for nuTilda, Initial residual = 0.0298817, Final residual = 0.00010429, No Iterations 8
ExecutionTime = 1.06 s  ClockTime = 1 s

Time = 10

smoothSolver:  Solving for Ux, Initial residual = 0.0551741, Final residual = 0.000247454, No Iterations 8
smoothSolver:  Solving for Uy, Initial residual = 0.0612524, Final residual = 0.000310076, No Iterations 8
GAMG:  Solving for p, Initial residual = 0.200334, Final residual = 0.00173202, No Iterations 5
time step continuity errors : sum local = 0.000617385, global = 2.42146e-17, cumulative = 1.65657e-16
smoothSolver:  Solving for nuTilda, Initial residual = 0.0260187, Final residual = 9.36589e-05, No Iterations 8
ExecutionTime = 1.15 s  ClockTime = 1 s

forces wings output:
    sum of forces:
        pressure : (-215.22 -714.495 -8.37056e-19)
        viscous  : (0.485693 -0.105477 -3.28411e-20)
        porous   : (0 0 0)
    sum of moments:
        pressure : (35.7247 -10.761 -349.239)
        viscous  : (0.00527386 0.0242846 -0.0544277)
        porous   : (0 0 0)

Time = 11

smoothSolver:  Solving for Ux, Initial residual = 0.0707718, Final residual = 0.000333932, No Iterations 8
smoothSolver:  Solving for Uy, Initial residual = 0.0834499, Final residual = 0.000425274, No Iterations 8
GAMG:  Solving for p, Initial residual = 0.205814, Final residual = 0.00142823, No Iterations 6
time step continuity errors : sum local = 0.000513646, global = -9.50869e-18, cumulative = 1.56149e-16
smoothSolver:  Solving for nuTilda, Initial residual = 0.0228689, Final residual = 8.51735e-05, No Iterations 8
ExecutionTime = 1.24 s  ClockTime = 1 s

Time = 12

smoothSolver:  Solving for Ux, Initial residual = 0.0283065, Final residual = 0.000102429, No Iterations 8
smoothSolver:  Solving for Uy, Initial residual = 0.0200691, Final residual = 8.65862e-05, No Iterations 8
GAMG:  Solving for p, Initial residual = 0.157218, Final residual = 0.00104672, No Iterations 6
time step continuity errors : sum local = 0.000362545, global = 7.48386e-17, cumulative = 2.30987e-16
smoothSolver:  Solving for nuTilda, Initial residual = 0.0201631, Final residual = 7.7883e-05, No Iterations 8
ExecutionTime = 1.33 s  ClockTime = 1 s

Time = 13

smoothSolver:  Solving for Ux, Initial residual = 0.0460959, Final residual = 0.00019841, No Iterations 8
smoothSolver:  Solving for Uy, Initial residual = 0.0555797, Final residual = 0.000275243, No Iterations 8
GAMG:  Solving for p, Initial residual = 0.143126, Final residual = 0.000837257, No Iterations 6
time step continuity errors : sum local = 0.000286234, global = -1.30273e-16, cumulative = 1.00714e-16
smoothSolver:  Solving for nuTilda, Initial residual = 0.0178904, Final residual = 7.13724e-05, No Iterations 8
ExecutionTime = 1.41 s  ClockTime = 1 s

Time = 14

smoothSolver:  Solving for Ux, Initial residual = 0.0383765, Final residual = 0.00016977, No Iterations 8
smoothSolver:  Solving for Uy, Initial residual = 0.0398882, Final residual = 0.000198068, No Iterations 8
GAMG:  Solving for p, Initial residual = 0.149195, Final residual = 0.00107374, No Iterations 6
time step continuity errors : sum local = 0.000375242, global = 2.21625e-16, cumulative = 3.22339e-16
smoothSolver:  Solving for nuTilda, Initial residual = 0.0159464, Final residual = 6.57198e-05, No Iterations 8
ExecutionTime = 1.5 s  ClockTime = 2 s

Time = 15

smoothSolver:  Solving for Ux, Initial residual = 0.0176243, Final residual = 6.54318e-05, No Iterations 8
smoothSolver:  Solving for Uy, Initial residual = 0.0123351, Final residual = 5.45553e-05, No Iterations 8
GAMG:  Solving for p, Initial residual = 0.112279, Final residual = 0.00103918, No Iterations 5
time step continuity errors : sum local = 0.000355602, global = 1.26799e-16, cumulative = 4.49138e-16
smoothSolver:  Solving for nuTilda, Initial residual = 0.0143155, Final residual = 6.10553e-05, No Iterations 8
ExecutionTime = 1.58 s  ClockTime = 2 s

forces wings output:
    sum of forces:
        pressure : (-74.6375 -240.863 -3.33905e-19)
        viscous  : (0.47301 -0.0992308 -8.73169e-21)
        porous   : (0 0 0)
    sum of moments:
        pressure : (12.0431 -3.73187 -121.653)
        viscous  : (0.00496154 0.0236505 -0.050853)
        porous   : (0 0 0)

Time = 16

smoothSolver:  Solving for Ux, Initial residual = 0.0264343, Final residual = 0.000117062, No Iterations 8
smoothSolver:  Solving for Uy, Initial residual = 0.0306571, Final residual = 0.000149495, No Iterations 8
GAMG:  Solving for p, Initial residual = 0.108067, Final residual = 0.000559712, No Iterations 6
time step continuity errors : sum local = 0.000187928, global = -1.30289e-16, cumulative = 3.1885e-16
smoothSolver:  Solving for nuTilda, Initial residual = 0.0129971, Final residual = 5.71664e-05, No Iterations 8
ExecutionTime = 1.68 s  ClockTime = 2 s

Time = 17

smoothSolver:  Solving for Ux, Initial residual = 0.0212551, Final residual = 9.4087e-05, No Iterations 8
smoothSolver:  Solving for Uy, Initial residual = 0.0226663, Final residual = 0.000108017, No Iterations 8
GAMG:  Solving for p, Initial residual = 0.103061, Final residual = 0.000544278, No Iterations 6
time step continuity errors : sum local = 0.00018477, global = -3.79154e-17, cumulative = 2.80934e-16
smoothSolver:  Solving for nuTilda, Initial residual = 0.0119013, Final residual = 5.3776e-05, No Iterations 8
ExecutionTime = 1.77 s  ClockTime = 2 s

Time = 18

smoothSolver:  Solving for Ux, Initial residual = 0.012971, Final residual = 4.84123e-05, No Iterations 8
smoothSolver:  Solving for Uy, Initial residual = 0.0134867, Final residual = 5.98029e-05, No Iterations 8
GAMG:  Solving for p, Initial residual = 0.072933, Final residual = 0.000439742, No Iterations 5
time step continuity errors : sum local = 0.000146656, global = 1.19225e-17, cumulative = 2.92857e-16
smoothSolver:  Solving for nuTilda, Initial residual = 0.010961, Final residual = 5.05806e-05, No Iterations 8
ExecutionTime = 1.85 s  ClockTime = 2 s

Time = 19

smoothSolver:  Solving for Ux, Initial residual = 0.0175532, Final residual = 7.31366e-05, No Iterations 8
smoothSolver:  Solving for Uy, Initial residual = 0.0206032, Final residual = 9.62995e-05, No Iterations 8
GAMG:  Solving for p, Initial residual = 0.0751038, Final residual = 0.000722089, No Iterations 5
time step continuity errors : sum local = 0.000236365, global = -3.74253e-18, cumulative = 2.89114e-16
smoothSolver:  Solving for nuTilda, Initial residual = 0.0101514, Final residual = 4.75563e-05, No Iterations 8
ExecutionTime = 1.94 s  ClockTime = 2 s

Time = 20

smoothSolver:  Solving for Ux, Initial residual = 0.0122634, Final residual = 4.9912e-05, No Iterations 8
smoothSolver:  Solving for Uy, Initial residual = 0.01046, Final residual = 4.67822e-05, No Iterations 8
GAMG:  Solving for p, Initial residual = 0.0703837, Final residual = 0.000694321, No Iterations 5
time step continuity errors : sum local = 0.000228625, global = 1.29866e-16, cumulative = 4.1898e-16
smoothSolver:  Solving for nuTilda, Initial residual = 0.00946842, Final residual = 4.48027e-05, No Iterations 8
ExecutionTime = 2.02 s  ClockTime = 2 s

forces wings output:
    sum of forces:
        pressure : (-12.1202 -30.2731 2.19212e-21)
        viscous  : (0.463797 -0.0868962 -3.79865e-21)
        porous   : (0 0 0)
    sum of moments:
        pressure : (1.51366 -0.606008 -20.443)
        viscous  : (0.00434481 0.0231899 -0.0445674)
        porous   : (0 0 0)

Time = 21

smoothSolver:  Solving for Ux, Initial residual = 0.0104604, Final residual = 4.18077e-05, No Iterations 8
smoothSolver:  Solving for Uy, Initial residual = 0.00943843, Final residual = 4.2074e-05, No Iterations 8
GAMG:  Solving for p, Initial residual = 0.0506408, Final residual = 0.000211411, No Iterations 5
time step continuity errors : sum local = 6.93572e-05, global = -8.3999e-17, cumulative = 3.34981e-16
smoothSolver:  Solving for nuTilda, Initial residual = 0.00889288, Final residual = 4.23724e-05, No Iterations 8
ExecutionTime = 2.11 s  ClockTime = 2 s

Time = 22

smoothSolver:  Solving for Ux, Initial residual = 0.0113928, Final residual = 4.92303e-05, No Iterations 8
smoothSolver:  Solving for Uy, Initial residual = 0.0121059, Final residual = 5.58408e-05, No Iterations 8
GAMG:  Solving for p, Initial residual = 0.051972, Final residual = 0.000452373, No Iterations 5
time step continuity errors : sum local = 0.000148357, global = -1.61941e-16, cumulative = 1.73039e-16
smoothSolver:  Solving for nuTilda, Initial residual = 0.00839182, Final residual = 4.02059e-05, No Iterations 8
ExecutionTime = 2.2 s  ClockTime = 2 s

Time = 23

smoothSolver:  Solving for Ux, Initial residual = 0.00757794, Final residual = 3.0987e-05, No Iterations 8
smoothSolver:  Solving for Uy, Initial residual = 0.00547533, Final residual = 2.34661e-05, No Iterations 8
GAMG:  Solving for p, Initial residual = 0.0476546, Final residual = 0.000353739, No Iterations 5
time step continuity errors : sum local = 0.000117446, global = -7.62973e-18, cumulative = 1.6541e-16
smoothSolver:  Solving for nuTilda, Initial residual = 0.00794205, Final residual = 3.82311e-05, No Iterations 8
ExecutionTime = 2.28 s  ClockTime = 2 s

Time = 24

smoothSolver:  Solving for Ux, Initial residual = 0.00771984, Final residual = 3.00667e-05, No Iterations 8
smoothSolver:  Solving for Uy, Initial residual = 0.00754332, Final residual = 3.49803e-05, No Iterations 8
GAMG:  Solving for p, Initial residual = 0.0346167, Final residual = 0.000183649, No Iterations 5
time step continuity errors : sum local = 6.00447e-05, global = -2.78443e-17, cumulative = 1.37565e-16
smoothSolver:  Solving for nuTilda, Initial residual = 0.0075194, Final residual = 3.63576e-05, No Iterations 8
ExecutionTime = 2.36 s  ClockTime = 2 s

Time = 25

smoothSolver:  Solving for Ux, Initial residual = 0.008118, Final residual = 3.21283e-05, No Iterations 8
smoothSolver:  Solving for Uy, Initial residual = 0.00737318, Final residual = 3.42509e-05, No Iterations 8
GAMG:  Solving for p, Initial residual = 0.0337192, Final residual = 0.000161133, No Iterations 6
time step continuity errors : sum local = 5.26688e-05, global = -7.68718e-17, cumulative = 6.06936e-17
smoothSolver:  Solving for nuTilda, Initial residual = 0.00713127, Final residual = 3.46037e-05, No Iterations 8
ExecutionTime = 2.45 s  ClockTime = 2 s

forces wings output:
    sum of forces:
        pressure : (5.32595 29.571 7.60209e-20)
        viscous  : (0.452769 -0.0790627 -2.55754e-21)
        porous   : (0 0 0)
    sum of moments:
        pressure : (-1.47855 0.266297 7.71706)
        viscous  : (0.00395314 0.0226384 -0.0406739)
        porous   : (0 0 0)

Time = 26

smoothSolver:  Solving for Ux, Initial residual = 0.00612472, Final residual = 2.3131e-05, No Iterations 8
smoothSolver:  Solving for Uy, Initial residual = 0.00346617, Final residual = 1.55322e-05, No Iterations 8
GAMG:  Solving for p, Initial residual = 0.0313691, Final residual = 0.000190708, No Iterations 5
time step continuity errors : sum local = 6.24655e-05, global = 9.82804e-18, cumulative = 7.05216e-17
smoothSolver:  Solving for nuTilda, Initial residual = 0.0067821, Final residual = 3.29751e-05, No Iterations 8
bounding nuTilda, min: -9.92009e-05 max: 0.444637 average: 0.0866961
ExecutionTime = 2.54 s  ClockTime = 3 s

Time = 27

smoothSolver:  Solving for Ux, Initial residual = 0.00671096, Final residual = 2.66835e-05, No Iterations 8
smoothSolver:  Solving for Uy, Initial residual = 0.00510633, Final residual = 2.36828e-05, No Iterations 8
GAMG:  Solving for p, Initial residual = 0.0239392, Final residual = 0.000155894, No Iterations 5
time step continuity errors : sum local = 5.15832e-05, global = 4.2706e-17, cumulative = 1.13228e-16
smoothSolver:  Solving for nuTilda, Initial residual = 0.00647442, Final residual = 3.15082e-05, No Iterations 8
bounding nuTilda, min: -0.000143536 max: 0.444688 average: 0.0857386
ExecutionTime = 2.62 s  ClockTime = 3 s

Time = 28

smoothSolver:  Solving for Ux, Initial residual = 0.00602481, Final residual = 2.43905e-05, No Iterations 8
smoothSolver:  Solving for Uy, Initial residual = 0.00449804, Final residual = 2.04904e-05, No Iterations 8
GAMG:  Solving for p, Initial residual = 0.0215203, Final residual = 0.000166704, No Iterations 5
time step continuity errors : sum local = 5.54923e-05, global = -2.29068e-16, cumulative = -1.15841e-16
smoothSolver:  Solving for nuTilda, Initial residual = 0.00619389, Final residual = 3.0129e-05, No Iterations 8
ExecutionTime = 2.71 s  ClockTime = 3 s

Time = 29

smoothSolver:  Solving for Ux, Initial residual = 0.0051019, Final residual = 1.99998e-05, No Iterations 8
smoothSolver:  Solving for Uy, Initial residual = 0.00322398, Final residual = 1.44319e-05, No Iterations 8
GAMG:  Solving for p, Initial residual = 0.0204765, Final residual = 0.000202109, No Iterations 4
time step continuity errors : sum local = 6.68264e-05, global = -2.05102e-16, cumulative = -3.20943e-16
smoothSolver:  Solving for nuTilda, Initial residual = 0.00594102, Final residual = 2.88758e-05, No Iterations 8
bounding nuTilda, min: -0.000141046 max: 0.44489 average: 0.0838996
ExecutionTime = 2.79 s  ClockTime = 3 s

Time = 30

smoothSolver:  Solving for Ux, Initial residual = 0.00514479, Final residual = 1.98807e-05, No Iterations 8
smoothSolver:  Solving for Uy, Initial residual = 0.00385292, Final residual = 1.81015e-05, No Iterations 8
GAMG:  Solving for p, Initial residual = 0.0167988, Final residual = 0.00011481, No Iterations 5
time step continuity errors : sum local = 3.81247e-05, global = -7.85395e-17, cumulative = -3.99483e-16
smoothSolver:  Solving for nuTilda, Initial residual = 0.00569463, Final residual = 2.76474e-05, No Iterations 8
bounding nuTilda, min: -0.000192777 max: 0.445004 average: 0.0830153
ExecutionTime = 2.87 s  ClockTime = 3 s

forces wings output:
    sum of forces:
        pressure : (6.77727 35.9053 6.00734e-20)
        viscous  : (0.4409 -0.075022 -2.72958e-21)
        porous   : (0 0 0)
    sum of moments:
        pressure : (-1.79527 0.338864 9.95415)
        viscous  : (0.0037511 0.022045 -0.0386849)
        porous   : (0 0 0)

Time = 31

smoothSolver:  Solving for Ux, Initial residual = 0.0048103, Final residual = 1.84668e-05, No Iterations 8
smoothSolver:  Solving for Uy, Initial residual = 0.00293156, Final residual = 1.39184e-05, No Iterations 8
GAMG:  Solving for p, Initial residual = 0.0139201, Final residual = 0.000117374, No Iterations 5
time step continuity errors : sum local = 3.90608e-05, global = 1.87639e-16, cumulative = -2.11843e-16
smoothSolver:  Solving for nuTilda, Initial residual = 0.00546935, Final residual = 2.65419e-05, No Iterations 8
ExecutionTime = 2.96 s  ClockTime = 3 s

Time = 32

smoothSolver:  Solving for Ux, Initial residual = 0.00454635, Final residual = 1.7613e-05, No Iterations 8
smoothSolver:  Solving for Uy, Initial residual = 0.0024723, Final residual = 1.17051e-05, No Iterations 8
GAMG:  Solving for p, Initial residual = 0.0132702, Final residual = 9.65973e-05, No Iterations 4
time step continuity errors : sum local = 3.22395e-05, global = 5.35193e-17, cumulative = -1.58324e-16
smoothSolver:  Solving for nuTilda, Initial residual = 0.00524658, Final residual = 2.54449e-05, No Iterations 8
bounding nuTilda, min: -0.000268469 max: 0.445194 average: 0.0813159
ExecutionTime = 3.04 s  ClockTime = 3 s

Time = 33

smoothSolver:  Solving for Ux, Initial residual = 0.00448854, Final residual = 1.78774e-05, No Iterations 8
smoothSolver:  Solving for Uy, Initial residual = 0.00267254, Final residual = 1.28255e-05, No Iterations 8
GAMG:  Solving for p, Initial residual = 0.0120123, Final residual = 8.01361e-05, No Iterations 5
time step continuity errors : sum local = 2.62993e-05, global = -9.58719e-17, cumulative = -2.54196e-16
smoothSolver:  Solving for nuTilda, Initial residual = 0.00504761, Final residual = 2.44748e-05, No Iterations 8
ExecutionTime = 3.13 s  ClockTime = 3 s

Time = 34

smoothSolver:  Solving for Ux, Initial residual = 0.0042008, Final residual = 1.70162e-05, No Iterations 8
smoothSolver:  Solving for Uy, Initial residual = 0.00217475, Final residual = 1.06159e-05, No Iterations 8
GAMG:  Solving for p, Initial residual = 0.00977856, Final residual = 5.90709e-05, No Iterations 5
time step continuity errors : sum local = 1.96752e-05, global = 1.8045e-16, cumulative = -7.37455e-17
smoothSolver:  Solving for nuTilda, Initial residual = 0.00485071, Final residual = 2.34937e-05, No Iterations 8
bounding nuTilda, min: -9.80871e-05 max: 0.445321 average: 0.0796994
ExecutionTime = 3.21 s  ClockTime = 3 s

Time = 35

smoothSolver:  Solving for Ux, Initial residual = 0.00400253, Final residual = 1.62737e-05, No Iterations 8
smoothSolver:  Solving for Uy, Initial residual = 0.00218651, Final residual = 1.06196e-05, No Iterations 8
GAMG:  Solving for p, Initial residual = 0.00893279, Final residual = 6.80266e-05, No Iterations 4
time step continuity errors : sum local = 2.25777e-05, global = 1.09203e-16, cumulative = 3.54578e-17
smoothSolver:  Solving for nuTilda, Initial residual = 0.00467174, Final residual = 2.26318e-05, No Iterations 8
ExecutionTime = 3.29 s  ClockTime = 3 s

forces wings output:
    sum of forces:
        pressure : (4.96819 30.8425 5.20443e-20)
        viscous  : (0.428297 -0.0725584 -4.02672e-21)
        porous   : (0 0 0)
    sum of moments:
        pressure : (-1.54212 0.24841 6.94514)
        viscous  : (0.00362792 0.0214148 -0.0374727)
        porous   : (0 0 0)

Time = 36

smoothSolver:  Solving for Ux, Initial residual = 0.00385072, Final residual = 1.56346e-05, No Iterations 8
smoothSolver:  Solving for Uy, Initial residual = 0.0020895, Final residual = 1.04241e-05, No Iterations 8
GAMG:  Solving for p, Initial residual = 0.00845463, Final residual = 5.61608e-05, No Iterations 5
time step continuity errors : sum local = 1.86824e-05, global = -3.30602e-17, cumulative = 2.39764e-18
smoothSolver:  Solving for nuTilda, Initial residual = 0.00449496, Final residual = 2.17498e-05, No Iterations 8
bounding nuTilda, min: -0.000142419 max: 0.445389 average: 0.0781589
ExecutionTime = 3.39 s  ClockTime = 3 s

Time = 37

smoothSolver:  Solving for Ux, Initial residual = 0.00371132, Final residual = 1.51149e-05, No Iterations 8
smoothSolver:  Solving for Uy, Initial residual = 0.00165476, Final residual = 8.59773e-06, No Iterations 8
GAMG:  Solving for p, Initial residual = 0.00701918, Final residual = 4.43526e-05, No Iterations 5
time step continuity errors : sum local = 1.48309e-05, global = 3.2967e-16, cumulative = 3.32067e-16
smoothSolver:  Solving for nuTilda, Initial residual = 0.0043341, Final residual = 2.09717e-05, No Iterations 8
ExecutionTime = 3.47 s  ClockTime = 3 s

Time = 38

smoothSolver:  Solving for Ux, Initial residual = 0.00362185, Final residual = 1.48957e-05, No Iterations 8
smoothSolver:  Solving for Uy, Initial residual = 0.00171151, Final residual = 8.91026e-06, No Iterations 8
GAMG:  Solving for p, Initial residual = 0.00623254, Final residual = 5.33967e-05, No Iterations 4
time step continuity errors : sum local = 1.78387e-05, global = 1.66606e-16, cumulative = 4.98673e-16
smoothSolver:  Solving for nuTilda, Initial residual = 0.00417392, Final residual = 2.01829e-05, No Iterations 8
bounding nuTilda, min: -0.000179886 max: 0.445398 average: 0.0766887
ExecutionTime = 3.55 s  ClockTime = 4 s

Time = 39

smoothSolver:  Solving for Ux, Initial residual = 0.00353571, Final residual = 1.47332e-05, No Iterations 8
smoothSolver:  Solving for Uy, Initial residual = 0.00165196, Final residual = 8.71711e-06, No Iterations 8
GAMG:  Solving for p, Initial residual = 0.00604863, Final residual = 3.52001e-05, No Iterations 5
time step continuity errors : sum local = 1.15813e-05, global = -4.4301e-17, cumulative = 4.54372e-16
smoothSolver:  Solving for nuTilda, Initial residual = 0.00402975, Final residual = 1.94817e-05, No Iterations 8
ExecutionTime = 3.64 s  ClockTime = 4 s

Time = 40

smoothSolver:  Solving for Ux, Initial residual = 0.00345108, Final residual = 1.45313e-05, No Iterations 8
smoothSolver:  Solving for Uy, Initial residual = 0.0015182, Final residual = 8.12763e-06, No Iterations 8
GAMG:  Solving for p, Initial residual = 0.00538015, Final residual = 4.48481e-05, No Iterations 4
time step continuity errors : sum local = 1.49208e-05, global = -1.31888e-16, cumulative = 3.22484e-16
smoothSolver:  Solving for nuTilda, Initial residual = 0.00388941, Final residual = 1.87793e-05, No Iterations 8
bounding nuTilda, min: -0.000211927 max: 0.445369 average: 0.0752832
ExecutionTime = 3.72 s  ClockTime = 4 s

forces wings output:
    sum of forces:
        pressure : (3.8842 27.8193 5.53421e-20)
        viscous  : (0.416846 -0.0706687 -4.76859e-21)
        porous   : (0 0 0)
    sum of moments:
        pressure : (-1.39097 0.19421 5.14136)
        viscous  : (0.00353343 0.0208423 -0.0365546)
        porous   : (0 0 0)

Time = 41

smoothSolver:  Solving for Ux, Initial residual = 0.00337805, Final residual = 1.42794e-05, No Iterations 8
smoothSolver:  Solving for Uy, Initial residual = 0.00155051, Final residual = 8.23995e-06, No Iterations 8
GAMG:  Solving for p, Initial residual = 0.00488099, Final residual = 4.32492e-05, No Iterations 4
time step continuity errors : sum local = 1.43563e-05, global = -1.48432e-16, cumulative = 1.74051e-16
smoothSolver:  Solving for nuTilda, Initial residual = 0.00375904, Final residual = 1.81406e-05, No Iterations 8
ExecutionTime = 3.8 s  ClockTime = 4 s

Time = 42

smoothSolver:  Solving for Ux, Initial residual = 0.00330566, Final residual = 1.39726e-05, No Iterations 8
smoothSolver:  Solving for Uy, Initial residual = 0.00143467, Final residual = 7.75368e-06, No Iterations 8
GAMG:  Solving for p, Initial residual = 0.00466668, Final residual = 3.31938e-05, No Iterations 5
time step continuity errors : sum local = 1.11017e-05, global = 3.85471e-16, cumulative = 5.59522e-16
smoothSolver:  Solving for nuTilda, Initial residual = 0.00363175, Final residual = 1.75033e-05, No Iterations 8
bounding nuTilda, min: -0.000239473 max: 0.445333 average: 0.0739377
ExecutionTime = 3.89 s  ClockTime = 4 s

Time = 43

smoothSolver:  Solving for Ux, Initial residual = 0.00324182, Final residual = 1.36909e-05, No Iterations 8
smoothSolver:  Solving for Uy, Initial residual = 0.00139603, Final residual = 7.62095e-06, No Iterations 8
GAMG:  Solving for p, Initial residual = 0.00430131, Final residual = 4.07146e-05, No Iterations 4
time step continuity errors : sum local = 1.34957e-05, global = -3.82736e-17, cumulative = 5.21249e-16
smoothSolver:  Solving for nuTilda, Initial residual = 0.00351313, Final residual = 1.69159e-05, No Iterations 8
ExecutionTime = 3.96 s  ClockTime = 4 s

Time = 44

smoothSolver:  Solving for Ux, Initial residual = 0.00317843, Final residual = 1.3449e-05, No Iterations 8
smoothSolver:  Solving for Uy, Initial residual = 0.00141321, Final residual = 7.76228e-06, No Iterations 8
GAMG:  Solving for p, Initial residual = 0.00408739, Final residual = 3.77489e-05, No Iterations 4
time step continuity errors : sum local = 1.25843e-05, global = 2.29848e-17, cumulative = 5.44233e-16
smoothSolver:  Solving for nuTilda, Initial residual = 0.00339767, Final residual = 1.63445e-05, No Iterations 8
bounding nuTilda, min: -0.000261863 max: 0.445302 average: 0.0726484
ExecutionTime = 4.05 s  ClockTime = 4 s

Time = 45

smoothSolver:  Solving for Ux, Initial residual = 0.00311589, Final residual = 1.32408e-05, No Iterations 8
smoothSolver:  Solving for Uy, Initial residual = 0.00138537, Final residual = 7.6833e-06, No Iterations 8
GAMG:  Solving for p, Initial residual = 0.00397548, Final residual = 3.44417e-05, No Iterations 4
time step continuity errors : sum local = 1.14838e-05, global = -3.00189e-17, cumulative = 5.14214e-16
smoothSolver:  Solving for nuTilda, Initial residual = 0.00329067, Final residual = 1.5811e-05, No Iterations 8
ExecutionTime = 4.13 s  ClockTime = 4 s

forces wings output:
    sum of forces:
        pressure : (3.70299 27.5946 6.392e-20)
        viscous  : (0.405076 -0.068695 -5.43075e-21)
        porous   : (0 0 0)
    sum of moments:
        pressure : (-1.37973 0.185149 4.81796)
        viscous  : (0.00343475 0.0202538 -0.035594)
        porous   : (0 0 0)

Time = 46

smoothSolver:  Solving for Ux, Initial residual = 0.00305961, Final residual = 1.3068e-05, No Iterations 8
smoothSolver:  Solving for Uy, Initial residual = 0.00136264, Final residual = 7.58249e-06, No Iterations 8
GAMG:  Solving for p, Initial residual = 0.00380434, Final residual = 3.41281e-05, No Iterations 4
time step continuity errors : sum local = 1.12987e-05, global = -1.72182e-17, cumulative = 4.96996e-16
smoothSolver:  Solving for nuTilda, Initial residual = 0.00318689, Final residual = 1.52911e-05, No Iterations 8
bounding nuTilda, min: -0.000280343 max: 0.445278 average: 0.0714113
ExecutionTime = 4.22 s  ClockTime = 4 s

Time = 47

smoothSolver:  Solving for Ux, Initial residual = 0.00301416, Final residual = 1.29203e-05, No Iterations 8
smoothSolver:  Solving for Uy, Initial residual = 0.00134124, Final residual = 7.4734e-06, No Iterations 8
GAMG:  Solving for p, Initial residual = 0.00361647, Final residual = 3.44907e-05, No Iterations 4
time step continuity errors : sum local = 1.148e-05, global = 2.18977e-16, cumulative = 7.15974e-16
smoothSolver:  Solving for nuTilda, Initial residual = 0.00308828, Final residual = 1.48043e-05, No Iterations 8
ExecutionTime = 4.3 s  ClockTime = 4 s

Time = 48

smoothSolver:  Solving for Ux, Initial residual = 0.00297009, Final residual = 1.27669e-05, No Iterations 8
smoothSolver:  Solving for Uy, Initial residual = 0.00131794, Final residual = 7.37245e-06, No Iterations 8
GAMG:  Solving for p, Initial residual = 0.00351871, Final residual = 3.26306e-05, No Iterations 4
time step continuity errors : sum local = 1.08685e-05, global = -1.23469e-16, cumulative = 5.92504e-16
smoothSolver:  Solving for nuTilda, Initial residual = 0.00299395, Final residual = 1.43364e-05, No Iterations 8
bounding nuTilda, min: -0.000295961 max: 0.445259 average: 0.0702233
ExecutionTime = 4.38 s  ClockTime = 4 s

Time = 49

smoothSolver:  Solving for Ux, Initial residual = 0.00292346, Final residual = 1.25961e-05, No Iterations 8
smoothSolver:  Solving for Uy, Initial residual = 0.00131459, Final residual = 7.38466e-06, No Iterations 8
GAMG:  Solving for p, Initial residual = 0.00348213, Final residual = 2.36162e-05, No Iterations 5
time step continuity errors : sum local = 7.87516e-06, global = 3.55782e-17, cumulative = 6.28083e-16
smoothSolver:  Solving for nuTilda, Initial residual = 0.00290538, Final residual = 1.38937e-05, No Iterations 8
ExecutionTime = 4.47 s  ClockTime = 4 s

Time = 50

smoothSolver:  Solving for Ux, Initial residual = 0.00287449, Final residual = 1.24037e-05, No Iterations 8
smoothSolver:  Solving for Uy, Initial residual = 0.00131915, Final residual = 7.42691e-06, No Iterations 8
GAMG:  Solving for p, Initial residual = 0.00339041, Final residual = 1.97119e-05, No Iterations 5
time step continuity errors : sum local = 6.55921e-06, global = 2.6575e-16, cumulative = 8.93833e-16
smoothSolver:  Solving for nuTilda, Initial residual = 0.00281947, Final residual = 1.34685e-05, No Iterations 8
bounding nuTilda, min: -0.000308959 max: 0.445247 average: 0.0690812
ExecutionTime = 4.55 s  ClockTime = 5 s

forces wings output:
    sum of forces:
        pressure : (3.82612 28.3205 7.10544e-20)
        viscous  : (0.394213 -0.0668034 -5.84258e-21)
        porous   : (0 0 0)
    sum of moments:
        pressure : (-1.41602 0.191306 4.9931)
        viscous  : (0.00334017 0.0197106 -0.0346773)
        porous   : (0 0 0)

Time = 51

smoothSolver:  Solving for Ux, Initial residual = 0.00282664, Final residual = 1.2214e-05, No Iterations 8
smoothSolver:  Solving for Uy, Initial residual = 0.00132102, Final residual = 7.44908e-06, No Iterations 8
GAMG:  Solving for p, Initial residual = 0.00326428, Final residual = 2.61119e-05, No Iterations 4
time step continuity errors : sum local = 8.64752e-06, global = 7.33334e-17, cumulative = 9.67166e-16
smoothSolver:  Solving for nuTilda, Initial residual = 0.00273761, Final residual = 1.30618e-05, No Iterations 8
ExecutionTime = 4.64 s  ClockTime = 5 s

Time = 52

smoothSolver:  Solving for Ux, Initial residual = 0.00278291, Final residual = 1.20537e-05, No Iterations 8
smoothSolver:  Solving for Uy, Initial residual = 0.00131087, Final residual = 7.42278e-06, No Iterations 8
GAMG:  Solving for p, Initial residual = 0.00317991, Final residual = 2.8702e-05, No Iterations 4
time step continuity errors : sum local = 9.51609e-06, global = -1.59927e-16, cumulative = 8.07239e-16
smoothSolver:  Solving for nuTilda, Initial residual = 0.00265989, Final residual = 1.26722e-05, No Iterations 8
bounding nuTilda, min: -0.000319818 max: 0.445239 average: 0.0679825
ExecutionTime = 4.73 s  ClockTime = 5 s

Time = 53

smoothSolver:  Solving for Ux, Initial residual = 0.00274654, Final residual = 1.19338e-05, No Iterations 8
smoothSolver:  Solving for Uy, Initial residual = 0.00129447, Final residual = 7.36248e-06, No Iterations 8
GAMG:  Solving for p, Initial residual = 0.00314603, Final residual = 2.08159e-05, No Iterations 5
time step continuity errors : sum local = 6.92391e-06, global = 3.59642e-17, cumulative = 8.43204e-16
smoothSolver:  Solving for nuTilda, Initial residual = 0.00258439, Final residual = 1.22963e-05, No Iterations 8
ExecutionTime = 4.81 s  ClockTime = 5 s

Time = 54

smoothSolver:  Solving for Ux, Initial residual = 0.00271834, Final residual = 1.18339e-05, No Iterations 8
smoothSolver:  Solving for Uy, Initial residual = 0.00128525, Final residual = 7.31375e-06, No Iterations 8
GAMG:  Solving for p, Initial residual = 0.00309947, Final residual = 2.83308e-05, No Iterations 4
time step continuity errors : sum local = 9.40163e-06, global = -8.17381e-17, cumulative = 7.61466e-16
smoothSolver:  Solving for nuTilda, Initial residual = 0.0025114, Final residual = 1.19367e-05, No Iterations 8
bounding nuTilda, min: -0.000328847 max: 0.445236 average: 0.0669245
ExecutionTime = 4.89 s  ClockTime = 5 s

Time = 55

smoothSolver:  Solving for Ux, Initial residual = 0.0026895, Final residual = 1.17096e-05, No Iterations 8
smoothSolver:  Solving for Uy, Initial residual = 0.00128355, Final residual = 7.29892e-06, No Iterations 8
GAMG:  Solving for p, Initial residual = 0.00303633, Final residual = 2.90979e-05, No Iterations 4
time step continuity errors : sum local = 9.65286e-06, global = 1.2543e-16, cumulative = 8.86895e-16
smoothSolver:  Solving for nuTilda, Initial residual = 0.00244146, Final residual = 1.15918e-05, No Iterations 8
ExecutionTime = 4.97 s  ClockTime = 5 s

forces wings output:
    sum of forces:
        pressure : (3.85009 28.7535 7.26152e-20)
        viscous  : (0.383557 -0.064902 -6.17744e-21)
        porous   : (0 0 0)
    sum of moments:
        pressure : (-1.43768 0.192505 5.00448)
        viscous  : (0.0032451 0.0191779 -0.0337617)
        porous   : (0 0 0)

Time = 56

smoothSolver:  Solving for Ux, Initial residual = 0.00265592, Final residual = 1.15641e-05, No Iterations 8
smoothSolver:  Solving for Uy, Initial residual = 0.00128063, Final residual = 7.29703e-06, No Iterations 8
GAMG:  Solving for p, Initial residual = 0.00296721, Final residual = 1.96214e-05, No Iterations 5
time step continuity errors : sum local = 6.55375e-06, global = -1.20063e-16, cumulative = 7.66833e-16
smoothSolver:  Solving for nuTilda, Initial residual = 0.00237436, Final residual = 1.12594e-05, No Iterations 8
bounding nuTilda, min: -0.000336277 max: 0.445236 average: 0.0659051
ExecutionTime = 5.06 s  ClockTime = 5 s

Time = 57

smoothSolver:  Solving for Ux, Initial residual = 0.00261998, Final residual = 1.14177e-05, No Iterations 8
smoothSolver:  Solving for Uy, Initial residual = 0.00127732, Final residual = 7.29796e-06, No Iterations 8
GAMG:  Solving for p, Initial residual = 0.00293917, Final residual = 2.7445e-05, No Iterations 4
time step continuity errors : sum local = 9.09175e-06, global = 1.90085e-16, cumulative = 9.56918e-16
smoothSolver:  Solving for nuTilda, Initial residual = 0.0023093, Final residual = 1.09418e-05, No Iterations 8
ExecutionTime = 5.14 s  ClockTime = 5 s

Time = 58

smoothSolver:  Solving for Ux, Initial residual = 0.00258345, Final residual = 1.12782e-05, No Iterations 8
smoothSolver:  Solving for Uy, Initial residual = 0.00127333, Final residual = 7.28349e-06, No Iterations 8
GAMG:  Solving for p, Initial residual = 0.00289746, Final residual = 2.6349e-05, No Iterations 4
time step continuity errors : sum local = 8.74844e-06, global = 4.26519e-16, cumulative = 1.38344e-15
smoothSolver:  Solving for nuTilda, Initial residual = 0.00224688, Final residual = 1.06368e-05, No Iterations 8
bounding nuTilda, min: -0.000340722 max: 0.445238 average: 0.0649222
ExecutionTime = 5.23 s  ClockTime = 5 s

Time = 59

smoothSolver:  Solving for Ux, Initial residual = 0.00255137, Final residual = 1.11591e-05, No Iterations 8
smoothSolver:  Solving for Uy, Initial residual = 0.00126655, Final residual = 7.24944e-06, No Iterations 8
GAMG:  Solving for p, Initial residual = 0.00284005, Final residual = 2.72045e-05, No Iterations 4
time step continuity errors : sum local = 9.03377e-06, global = -6.88227e-17, cumulative = 1.31461e-15
smoothSolver:  Solving for nuTilda, Initial residual = 0.00218703, Final residual = 1.03422e-05, No Iterations 8
ExecutionTime = 5.31 s  ClockTime = 5 s

Time = 60

smoothSolver:  Solving for Ux, Initial residual = 0.00252379, Final residual = 1.10541e-05, No Iterations 8
smoothSolver:  Solving for Uy, Initial residual = 0.00125789, Final residual = 7.20793e-06, No Iterations 8
GAMG:  Solving for p, Initial residual = 0.00277942, Final residual = 1.82045e-05, No Iterations 5
time step continuity errors : sum local = 6.05277e-06, global = 3.99019e-17, cumulative = 1.35452e-15
smoothSolver:  Solving for nuTilda, Initial residual = 0.00212993, Final residual = 1.0058e-05, No Iterations 8
bounding nuTilda, min: -0.00034205 max: 0.445243 average: 0.0639739
ExecutionTime = 5.39 s  ClockTime = 5 s

forces wings output:
    sum of forces:
        pressure : (3.90065 29.3111 7.48225e-20)
        viscous  : (0.373249 -0.063054 -6.48807e-21)
        porous   : (0 0 0)
    sum of moments:
        pressure : (-1.46555 0.195033 5.0562)
        viscous  : (0.0031527 0.0186625 -0.0328759)
        porous   : (0 0 0)

Time = 61

smoothSolver:  Solving for Ux, Initial residual = 0.0024993, Final residual = 1.09555e-05, No Iterations 8
smoothSolver:  Solving for Uy, Initial residual = 0.00125038, Final residual = 7.17399e-06, No Iterations 8
GAMG:  Solving for p, Initial residual = 0.00274488, Final residual = 2.73129e-05, No Iterations 4
time step continuity errors : sum local = 9.06655e-06, global = -1.29774e-16, cumulative = 1.22474e-15
smoothSolver:  Solving for nuTilda, Initial residual = 0.00207466, Final residual = 9.7855e-06, No Iterations 8
ExecutionTime = 5.48 s  ClockTime = 5 s

Time = 62

smoothSolver:  Solving for Ux, Initial residual = 0.00247274, Final residual = 1.08414e-05, No Iterations 8
smoothSolver:  Solving for Uy, Initial residual = 0.00124589, Final residual = 7.15196e-06, No Iterations 8
GAMG:  Solving for p, Initial residual = 0.00270623, Final residual = 1.25793e-05, No Iterations 5
time step continuity errors : sum local = 4.17131e-06, global = 4.0468e-17, cumulative = 1.26521e-15
smoothSolver:  Solving for nuTilda, Initial residual = 0.0020211, Final residual = 9.52431e-06, No Iterations 8
bounding nuTilda, min: -0.000341818 max: 0.44525 average: 0.0630585
ExecutionTime = 5.55 s  ClockTime = 6 s

Time = 63

smoothSolver:  Solving for Ux, Initial residual = 0.0024464, Final residual = 1.07261e-05, No Iterations 8
smoothSolver:  Solving for Uy, Initial residual = 0.00124206, Final residual = 7.13152e-06, No Iterations 8
GAMG:  Solving for p, Initial residual = 0.00266364, Final residual = 2.65229e-05, No Iterations 4
time step continuity errors : sum local = 8.82001e-06, global = 3.93994e-17, cumulative = 1.30461e-15
smoothSolver:  Solving for nuTilda, Initial residual = 0.00196969, Final residual = 9.27069e-06, No Iterations 8
ExecutionTime = 5.64 s  ClockTime = 6 s

Time = 64

smoothSolver:  Solving for Ux, Initial residual = 0.00241867, Final residual = 1.06074e-05, No Iterations 8
smoothSolver:  Solving for Uy, Initial residual = 0.00123878, Final residual = 7.11031e-06, No Iterations 8
GAMG:  Solving for p, Initial residual = 0.00262046, Final residual = 1.19902e-05, No Iterations 5
time step continuity errors : sum local = 3.98289e-06, global = -1.0554e-16, cumulative = 1.19907e-15
smoothSolver:  Solving for nuTilda, Initial residual = 0.00192012, Final residual = 9.02434e-06, No Iterations 8
bounding nuTilda, min: -0.00034051 max: 0.445259 average: 0.0621745
ExecutionTime = 5.73 s  ClockTime = 6 s

Time = 65

smoothSolver:  Solving for Ux, Initial residual = 0.00239317, Final residual = 1.05014e-05, No Iterations 8
smoothSolver:  Solving for Uy, Initial residual = 0.00123364, Final residual = 7.08089e-06, No Iterations 8
GAMG:  Solving for p, Initial residual = 0.00258212, Final residual = 1.29069e-05, No Iterations 5
time step continuity errors : sum local = 4.28676e-06, global = -6.13155e-17, cumulative = 1.13775e-15
smoothSolver:  Solving for nuTilda, Initial residual = 0.00187284, Final residual = 8.78583e-06, No Iterations 8
ExecutionTime = 5.81 s  ClockTime = 6 s

forces wings output:
    sum of forces:
        pressure : (3.97998 29.9322 7.77388e-20)
        viscous  : (0.363241 -0.0612667 -6.75097e-21)
        porous   : (0 0 0)
    sum of moments:
        pressure : (-1.49661 0.198999 5.15707)
        viscous  : (0.00306333 0.0181621 -0.0320131)
        porous   : (0 0 0)

Time = 66

smoothSolver:  Solving for Ux, Initial residual = 0.00236837, Final residual = 1.03997e-05, No Iterations 8
smoothSolver:  Solving for Uy, Initial residual = 0.00122743, Final residual = 7.04535e-06, No Iterations 8
GAMG:  Solving for p, Initial residual = 0.00254417, Final residual = 1.36181e-05, No Iterations 5
time step continuity errors : sum local = 4.52581e-06, global = 7.38329e-18, cumulative = 1.14514e-15
smoothSolver:  Solving for nuTilda, Initial residual = 0.0018269, Final residual = 8.55499e-06, No Iterations 8
bounding nuTilda, min: -0.000338236 max: 0.44527 average: 0.0613202
ExecutionTime = 5.9 s  ClockTime = 6 s

Time = 67

smoothSolver:  Solving for Ux, Initial residual = 0.00234419, Final residual = 1.03e-05, No Iterations 8
smoothSolver:  Solving for Uy, Initial residual = 0.00122087, Final residual = 7.00719e-06, No Iterations 8
GAMG:  Solving for p, Initial residual = 0.00250441, Final residual = 1.3896e-05, No Iterations 5
time step continuity errors : sum local = 4.61965e-06, global = 7.84256e-17, cumulative = 1.22356e-15
smoothSolver:  Solving for nuTilda, Initial residual = 0.00178245, Final residual = 8.33072e-06, No Iterations 8
ExecutionTime = 5.99 s  ClockTime = 6 s

Time = 68

smoothSolver:  Solving for Ux, Initial residual = 0.0023206, Final residual = 1.02007e-05, No Iterations 8
smoothSolver:  Solving for Uy, Initial residual = 0.00121451, Final residual = 6.97001e-06, No Iterations 8
GAMG:  Solving for p, Initial residual = 0.00246136, Final residual = 1.37968e-05, No Iterations 5
time step continuity errors : sum local = 4.58728e-06, global = 1.56224e-16, cumulative = 1.37979e-15
smoothSolver:  Solving for nuTilda, Initial residual = 0.0017389, Final residual = 8.11462e-06, No Iterations 8
bounding nuTilda, min: -0.000335192 max: 0.44528 average: 0.0604942
ExecutionTime = 6.07 s  ClockTime = 6 s

Time = 69

smoothSolver:  Solving for Ux, Initial residual = 0.00229762, Final residual = 1.01026e-05, No Iterations 8
smoothSolver:  Solving for Uy, Initial residual = 0.00120865, Final residual = 6.93388e-06, No Iterations 8
GAMG:  Solving for p, Initial residual = 0.00242323, Final residual = 1.35219e-05, No Iterations 5
time step continuity errors : sum local = 4.4966e-06, global = -2.61156e-17, cumulative = 1.35367e-15
smoothSolver:  Solving for nuTilda, Initial residual = 0.00169678, Final residual = 7.90591e-06, No Iterations 8
ExecutionTime = 6.16 s  ClockTime = 6 s

Time = 70

smoothSolver:  Solving for Ux, Initial residual = 0.00227524, Final residual = 1.00057e-05, No Iterations 8
smoothSolver:  Solving for Uy, Initial residual = 0.00120312, Final residual = 6.89872e-06, No Iterations 8
GAMG:  Solving for p, Initial residual = 0.00238687, Final residual = 1.32396e-05, No Iterations 5
time step continuity errors : sum local = 4.40491e-06, global = 1.90099e-16, cumulative = 1.54377e-15
smoothSolver:  Solving for nuTilda, Initial residual = 0.00165622, Final residual = 7.70295e-06, No Iterations 8
bounding nuTilda, min: -0.000331586 max: 0.445291 average: 0.0596952
ExecutionTime = 6.24 s  ClockTime = 6 s

forces wings output:
    sum of forces:
        pressure : (4.04724 30.551 7.98463e-20)
        viscous  : (0.353464 -0.0595375 -6.97857e-21)
        porous   : (0 0 0)
    sum of moments:
        pressure : (-1.52755 0.202362 5.23543)
        viscous  : (0.00297687 0.0176732 -0.0311727)
        porous   : (0 0 0)

Time = 71

smoothSolver:  Solving for Ux, Initial residual = 0.00225352, Final residual = 9.91119e-06, No Iterations 8
smoothSolver:  Solving for Uy, Initial residual = 0.00119797, Final residual = 6.8639e-06, No Iterations 8
GAMG:  Solving for p, Initial residual = 0.00235353, Final residual = 1.30912e-05, No Iterations 5
time step continuity errors : sum local = 4.35895e-06, global = 6.13767e-17, cumulative = 1.60515e-15
smoothSolver:  Solving for nuTilda, Initial residual = 0.00161716, Final residual = 7.50719e-06, No Iterations 8
ExecutionTime = 6.33 s  ClockTime = 6 s

Time = 72

smoothSolver:  Solving for Ux, Initial residual = 0.00223258, Final residual = 9.81919e-06, No Iterations 8
smoothSolver:  Solving for Uy, Initial residual = 0.00119253, Final residual = 6.82766e-06, No Iterations 8
GAMG:  Solving for p, Initial residual = 0.00231962, Final residual = 1.31362e-05, No Iterations 5
time step continuity errors : sum local = 4.37611e-06, global = 7.62308e-17, cumulative = 1.68138e-15
smoothSolver:  Solving for nuTilda, Initial residual = 0.00157891, Final residual = 7.31786e-06, No Iterations 8
bounding nuTilda, min: -0.00032766 max: 0.445302 average: 0.0589219
ExecutionTime = 6.42 s  ClockTime = 6 s

Time = 73

smoothSolver:  Solving for Ux, Initial residual = 0.00221252, Final residual = 9.73079e-06, No Iterations 8
smoothSolver:  Solving for Uy, Initial residual = 0.00118662, Final residual = 6.78869e-06, No Iterations 8
GAMG:  Solving for p, Initial residual = 0.00228692, Final residual = 1.32733e-05, No Iterations 5
time step continuity errors : sum local = 4.42388e-06, global = -7.50397e-17, cumulative = 1.60634e-15
smoothSolver:  Solving for nuTilda, Initial residual = 0.00154142, Final residual = 7.1359e-06, No Iterations 8
ExecutionTime = 6.51 s  ClockTime = 7 s

Time = 74

smoothSolver:  Solving for Ux, Initial residual = 0.00219332, Final residual = 9.6454e-06, No Iterations 8
smoothSolver:  Solving for Uy, Initial residual = 0.00118014, Final residual = 6.74734e-06, No Iterations 8
GAMG:  Solving for p, Initial residual = 0.00225492, Final residual = 1.32601e-05, No Iterations 5
time step continuity errors : sum local = 4.42203e-06, global = -1.49739e-17, cumulative = 1.59136e-15
smoothSolver:  Solving for nuTilda, Initial residual = 0.00150498, Final residual = 6.96101e-06, No Iterations 8
bounding nuTilda, min: -0.000323572 max: 0.445314 average: 0.0581731
ExecutionTime = 6.59 s  ClockTime = 7 s

Time = 75

smoothSolver:  Solving for Ux, Initial residual = 0.00217477, Final residual = 9.56173e-06, No Iterations 8
smoothSolver:  Solving for Uy, Initial residual = 0.00117364, Final residual = 6.70486e-06, No Iterations 8
GAMG:  Solving for p, Initial residual = 0.00222568, Final residual = 1.31477e-05, No Iterations 5
time step continuity errors : sum local = 4.38821e-06, global = 1.24906e-16, cumulative = 1.71627e-15
smoothSolver:  Solving for nuTilda, Initial residual = 0.00147002, Final residual = 6.79133e-06, No Iterations 8
ExecutionTime = 6.68 s  ClockTime = 7 s

forces wings output:
    sum of forces:
        pressure : (4.11165 31.1831 8.14808e-20)
        viscous  : (0.34383 -0.0578799 -7.18198e-21)
        porous   : (0 0 0)
    sum of moments:
        pressure : (-1.55915 0.205582 5.30741)
        viscous  : (0.00289399 0.0171915 -0.0303472)
        porous   : (0 0 0)

Time = 76

smoothSolver:  Solving for Ux, Initial residual = 0.00215667, Final residual = 9.4789e-06, No Iterations 8
smoothSolver:  Solving for Uy, Initial residual = 0.00116735, Final residual = 6.66276e-06, No Iterations 8
GAMG:  Solving for p, Initial residual = 0.00219776, Final residual = 1.31054e-05, No Iterations 5
time step continuity errors : sum local = 4.37701e-06, global = 1.70501e-16, cumulative = 1.88677e-15
smoothSolver:  Solving for nuTilda, Initial residual = 0.00143585, Final residual = 6.62723e-06, No Iterations 8
bounding nuTilda, min: -0.00031948 max: 0.445326 average: 0.0574476
ExecutionTime = 6.77 s  ClockTime = 7 s

Time = 77

smoothSolver:  Solving for Ux, Initial residual = 0.00213892, Final residual = 9.39702e-06, No Iterations 8
smoothSolver:  Solving for Uy, Initial residual = 0.0011615, Final residual = 6.62147e-06, No Iterations 8
GAMG:  Solving for p, Initial residual = 0.00217408, Final residual = 1.31618e-05, No Iterations 5
time step continuity errors : sum local = 4.39898e-06, global = -2.67014e-16, cumulative = 1.61976e-15
smoothSolver:  Solving for nuTilda, Initial residual = 0.00140251, Final residual = 6.46846e-06, No Iterations 8
ExecutionTime = 6.85 s  ClockTime = 7 s

Time = 78

smoothSolver:  Solving for Ux, Initial residual = 0.00212154, Final residual = 9.31673e-06, No Iterations 8
smoothSolver:  Solving for Uy, Initial residual = 0.00115568, Final residual = 6.58005e-06, No Iterations 8
GAMG:  Solving for p, Initial residual = 0.00215136, Final residual = 1.32691e-05, No Iterations 5
time step continuity errors : sum local = 4.43673e-06, global = 7.15588e-17, cumulative = 1.69132e-15
smoothSolver:  Solving for nuTilda, Initial residual = 0.00137016, Final residual = 6.31484e-06, No Iterations 8
bounding nuTilda, min: -0.000315484 max: 0.445339 average: 0.0567445
ExecutionTime = 6.94 s  ClockTime = 7 s

Time = 79

smoothSolver:  Solving for Ux, Initial residual = 0.00210482, Final residual = 9.23921e-06, No Iterations 8
smoothSolver:  Solving for Uy, Initial residual = 0.00114958, Final residual = 6.5369e-06, No Iterations 8
GAMG:  Solving for p, Initial residual = 0.00213158, Final residual = 1.33425e-05, No Iterations 5
time step continuity errors : sum local = 4.46438e-06, global = 8.45659e-17, cumulative = 1.77588e-15
smoothSolver:  Solving for nuTilda, Initial residual = 0.00133907, Final residual = 6.16553e-06, No Iterations 8
ExecutionTime = 7.02 s  ClockTime = 7 s

Time = 80

smoothSolver:  Solving for Ux, Initial residual = 0.00208895, Final residual = 9.16463e-06, No Iterations 8
smoothSolver:  Solving for Uy, Initial residual = 0.00114291, Final residual = 6.49144e-06, No Iterations 8
GAMG:  Solving for p, Initial residual = 0.002111, Final residual = 1.33949e-05, No Iterations 5
time step continuity errors : sum local = 4.48442e-06, global = -1.78455e-17, cumulative = 1.75804e-15
smoothSolver:  Solving for nuTilda, Initial residual = 0.00130923, Final residual = 6.02129e-06, No Iterations 8
bounding nuTilda, min: -0.000311536 max: 0.445352 average: 0.0560628
ExecutionTime = 7.11 s  ClockTime = 7 s

forces wings output:
    sum of forces:
        pressure : (4.18102 31.8516 8.33185e-20)
        viscous  : (0.334264 -0.0562939 -7.37917e-21)
        porous   : (0 0 0)
    sum of moments:
        pressure : (-1.59258 0.209051 5.38587)
        viscous  : (0.0028147 0.0167132 -0.0295318)
        porous   : (0 0 0)

Time = 81

smoothSolver:  Solving for Ux, Initial residual = 0.00207368, Final residual = 9.09223e-06, No Iterations 8
smoothSolver:  Solving for Uy, Initial residual = 0.00113602, Final residual = 6.44438e-06, No Iterations 8
GAMG:  Solving for p, Initial residual = 0.00208969, Final residual = 1.34047e-05, No Iterations 5
time step continuity errors : sum local = 4.49008e-06, global = -2.79064e-16, cumulative = 1.47897e-15
smoothSolver:  Solving for nuTilda, Initial residual = 0.00128072, Final residual = 5.88281e-06, No Iterations 8
bounding nuTilda, min: -0.000154381 max: 0.445359 average: 0.0557298
ExecutionTime = 7.2 s  ClockTime = 7 s

Time = 82

smoothSolver:  Solving for Ux, Initial residual = 0.00205865, Final residual = 9.02088e-06, No Iterations 8
smoothSolver:  Solving for Uy, Initial residual = 0.00112907, Final residual = 6.39688e-06, No Iterations 8
GAMG:  Solving for p, Initial residual = 0.00207356, Final residual = 1.32418e-05, No Iterations 5
time step continuity errors : sum local = 4.43623e-06, global = -6.60292e-18, cumulative = 1.47237e-15
smoothSolver:  Solving for nuTilda, Initial residual = 0.00125301, Final residual = 5.74863e-06, No Iterations 8
bounding nuTilda, min: -0.000307638 max: 0.445366 average: 0.0554017
ExecutionTime = 7.28 s  ClockTime = 7 s

Time = 83

smoothSolver:  Solving for Ux, Initial residual = 0.00204392, Final residual = 8.9507e-06, No Iterations 8
smoothSolver:  Solving for Uy, Initial residual = 0.00112223, Final residual = 6.34938e-06, No Iterations 8
GAMG:  Solving for p, Initial residual = 0.0020581, Final residual = 1.42916e-05, No Iterations 5
time step continuity errors : sum local = 4.79078e-06, global = 1.48667e-16, cumulative = 1.62104e-15
smoothSolver:  Solving for nuTilda, Initial residual = 0.00122625, Final residual = 5.6183e-06, No Iterations 8
ExecutionTime = 7.37 s  ClockTime = 7 s

Time = 84

smoothSolver:  Solving for Ux, Initial residual = 0.00202945, Final residual = 8.88172e-06, No Iterations 8
smoothSolver:  Solving for Uy, Initial residual = 0.00111532, Final residual = 6.3018e-06, No Iterations 8
GAMG:  Solving for p, Initial residual = 0.00204266, Final residual = 1.91488e-05, No Iterations 5
time step continuity errors : sum local = 6.42427e-06, global = 1.7438e-16, cumulative = 1.79542e-15
smoothSolver:  Solving for nuTilda, Initial residual = 0.00120035, Final residual = 5.49189e-06, No Iterations 8
bounding nuTilda, min: -0.000303668 max: 0.44538 average: 0.0547603
ExecutionTime = 7.45 s  ClockTime = 7 s

Time = 85

smoothSolver:  Solving for Ux, Initial residual = 0.002014, Final residual = 8.80546e-06, No Iterations 8
smoothSolver:  Solving for Uy, Initial residual = 0.0011103, Final residual = 6.25985e-06, No Iterations 8
GAMG:  Solving for p, Initial residual = 0.00202531, Final residual = 1.36834e-05, No Iterations 5
time step continuity errors : sum local = 4.5939e-06, global = 1.69876e-16, cumulative = 1.96529e-15
smoothSolver:  Solving for nuTilda, Initial residual = 0.00117516, Final residual = 5.36947e-06, No Iterations 8
ExecutionTime = 7.54 s  ClockTime = 8 s

forces wings output:
    sum of forces:
        pressure : (4.24983 32.542 8.55647e-20)
        viscous  : (0.324747 -0.0548012 -7.59661e-21)
        porous   : (0 0 0)
    sum of moments:
        pressure : (-1.6271 0.212491 5.46157)
        viscous  : (0.00274006 0.0162373 -0.0287238)
        porous   : (0 0 0)

Time = 86

smoothSolver:  Solving for Ux, Initial residual = 0.00200119, Final residual = 8.74539e-06, No Iterations 8
smoothSolver:  Solving for Uy, Initial residual = 0.00110182, Final residual = 6.20639e-06, No Iterations 8
GAMG:  Solving for p, Initial residual = 0.00201911, Final residual = 1.40237e-05, No Iterations 5
time step continuity errors : sum local = 4.71374e-06, global = -2.61847e-16, cumulative = 1.70345e-15
smoothSolver:  Solving for nuTilda, Initial residual = 0.00115073, Final residual = 5.25092e-06, No Iterations 8
bounding nuTilda, min: -0.00029985 max: 0.445395 average: 0.0541378
ExecutionTime = 7.63 s  ClockTime = 8 s

Time = 87

smoothSolver:  Solving for Ux, Initial residual = 0.00198871, Final residual = 8.68587e-06, No Iterations 8
smoothSolver:  Solving for Uy, Initial residual = 0.00109331, Final residual = 6.15218e-06, No Iterations 8
GAMG:  Solving for p, Initial residual = 0.00200448, Final residual = 1.94399e-05, No Iterations 5
time step continuity errors : sum local = 6.53481e-06, global = 1.65908e-16, cumulative = 1.86935e-15
smoothSolver:  Solving for nuTilda, Initial residual = 0.00112707, Final residual = 5.13531e-06, No Iterations 8
bounding nuTilda, min: -5.40249e-05 max: 0.445402 average: 0.0538334
ExecutionTime = 7.72 s  ClockTime = 8 s

Time = 88

smoothSolver:  Solving for Ux, Initial residual = 0.00197458, Final residual = 8.6157e-06, No Iterations 8
smoothSolver:  Solving for Uy, Initial residual = 0.00108748, Final residual = 6.10613e-06, No Iterations 8
GAMG:  Solving for p, Initial residual = 0.00198897, Final residual = 1.37764e-05, No Iterations 5
time step continuity errors : sum local = 4.63449e-06, global = -1.08763e-16, cumulative = 1.76059e-15
smoothSolver:  Solving for nuTilda, Initial residual = 0.00110418, Final residual = 5.0216e-06, No Iterations 8
bounding nuTilda, min: -0.00029616 max: 0.44541 average: 0.0535335
ExecutionTime = 7.8 s  ClockTime = 8 s

Time = 89

smoothSolver:  Solving for Ux, Initial residual = 0.00196217, Final residual = 8.55744e-06, No Iterations 8
smoothSolver:  Solving for Uy, Initial residual = 0.00107899, Final residual = 6.05187e-06, No Iterations 8
GAMG:  Solving for p, Initial residual = 0.00198325, Final residual = 1.45254e-05, No Iterations 5
time step continuity errors : sum local = 4.8882e-06, global = -9.47754e-17, cumulative = 1.66582e-15
smoothSolver:  Solving for nuTilda, Initial residual = 0.00108148, Final residual = 4.91138e-06, No Iterations 8
ExecutionTime = 7.88 s  ClockTime = 8 s

Time = 90

smoothSolver:  Solving for Ux, Initial residual = 0.00194984, Final residual = 8.4987e-06, No Iterations 8
smoothSolver:  Solving for Uy, Initial residual = 0.00107083, Final residual = 5.99841e-06, No Iterations 8
GAMG:  Solving for p, Initial residual = 0.00196984, Final residual = 1.96637e-05, No Iterations 5
time step continuity errors : sum local = 6.62133e-06, global = 9.46516e-17, cumulative = 1.76047e-15
smoothSolver:  Solving for nuTilda, Initial residual = 0.00105945, Final residual = 4.80468e-06, No Iterations 8
bounding nuTilda, min: -0.000291515 max: 0.445426 average: 0.0529467
ExecutionTime = 7.97 s  ClockTime = 8 s

forces wings output:
    sum of forces:
        pressure : (4.31557 33.2388 8.7753e-20)
        viscous  : (0.315563 -0.0534622 -7.79384e-21)
        porous   : (0 0 0)
    sum of moments:
        pressure : (-1.66194 0.215779 5.53101)
        viscous  : (0.00267311 0.0157781 -0.0279458)
        porous   : (0 0 0)

Time = 91

smoothSolver:  Solving for Ux, Initial residual = 0.00193602, Final residual = 8.42955e-06, No Iterations 8
smoothSolver:  Solving for Uy, Initial residual = 0.00106518, Final residual = 5.95263e-06, No Iterations 8
GAMG:  Solving for p, Initial residual = 0.00195376, Final residual = 1.38067e-05, No Iterations 5
time step continuity errors : sum local = 4.65185e-06, global = 2.32974e-16, cumulative = 1.99344e-15
smoothSolver:  Solving for nuTilda, Initial residual = 0.00103798, Final residual = 4.70105e-06, No Iterations 8
bounding nuTilda, min: -6.9726e-05 max: 0.445434 average: 0.0526596
ExecutionTime = 8.06 s  ClockTime = 8 s

Time = 92

smoothSolver:  Solving for Ux, Initial residual = 0.0019244, Final residual = 8.37491e-06, No Iterations 8
smoothSolver:  Solving for Uy, Initial residual = 0.00105619, Final residual = 5.89639e-06, No Iterations 8
GAMG:  Solving for p, Initial residual = 0.00194616, Final residual = 1.40209e-05, No Iterations 5
time step continuity errors : sum local = 4.73008e-06, global = -2.3601e-16, cumulative = 1.75743e-15
smoothSolver:  Solving for nuTilda, Initial residual = 0.00101724, Final residual = 4.60007e-06, No Iterations 8
bounding nuTilda, min: -0.000285462 max: 0.445442 average: 0.0523767
ExecutionTime = 8.14 s  ClockTime = 8 s

Time = 93

smoothSolver:  Solving for Ux, Initial residual = 0.00191292, Final residual = 8.32084e-06, No Iterations 8
smoothSolver:  Solving for Uy, Initial residual = 0.00104719, Final residual = 5.83939e-06, No Iterations 8
GAMG:  Solving for p, Initial residual = 0.00194651, Final residual = 1.34352e-05, No Iterations 6
time step continuity errors : sum local = 4.54566e-06, global = 6.91899e-17, cumulative = 1.82662e-15
smoothSolver:  Solving for nuTilda, Initial residual = 0.000997183, Final residual = 4.502e-06, No Iterations 8
ExecutionTime = 8.24 s  ClockTime = 8 s

Time = 94

smoothSolver:  Solving for Ux, Initial residual = 0.00190032, Final residual = 8.25902e-06, No Iterations 8
smoothSolver:  Solving for Uy, Initial residual = 0.00104013, Final residual = 5.78908e-06, No Iterations 8
GAMG:  Solving for p, Initial residual = 0.0019361, Final residual = 1.37258e-05, No Iterations 6
time step continuity errors : sum local = 4.64643e-06, global = 6.23503e-17, cumulative = 1.88897e-15
smoothSolver:  Solving for nuTilda, Initial residual = 0.00097753, Final residual = 4.40655e-06, No Iterations 8
bounding nuTilda, min: -0.000277597 max: 0.445458 average: 0.0518229
ExecutionTime = 8.33 s  ClockTime = 8 s

Time = 95

smoothSolver:  Solving for Ux, Initial residual = 0.00188793, Final residual = 8.19888e-06, No Iterations 8
smoothSolver:  Solving for Uy, Initial residual = 0.00103243, Final residual = 5.73639e-06, No Iterations 8
GAMG:  Solving for p, Initial residual = 0.00192238, Final residual = 1.37917e-05, No Iterations 6
time step continuity errors : sum local = 4.67207e-06, global = 1.36859e-16, cumulative = 2.02583e-15
smoothSolver:  Solving for nuTilda, Initial residual = 0.000958423, Final residual = 4.31364e-06, No Iterations 8
ExecutionTime = 8.42 s  ClockTime = 8 s

forces wings output:
    sum of forces:
        pressure : (4.38206 33.9659 9.05961e-20)
        viscous  : (0.306868 -0.0523213 -8.00676e-21)
        porous   : (0 0 0)
    sum of moments:
        pressure : (-1.6983 0.219103 5.59948)
        viscous  : (0.00261606 0.0153434 -0.0272185)
        porous   : (0 0 0)

Time = 96

smoothSolver:  Solving for Ux, Initial residual = 0.00187626, Final residual = 8.14321e-06, No Iterations 8
smoothSolver:  Solving for Uy, Initial residual = 0.00102368, Final residual = 5.67984e-06, No Iterations 8
GAMG:  Solving for p, Initial residual = 0.00191303, Final residual = 1.37024e-05, No Iterations 6
time step continuity errors : sum local = 4.64524e-06, global = 2.42389e-16, cumulative = 2.26822e-15
smoothSolver:  Solving for nuTilda, Initial residual = 0.000939881, Final residual = 4.22314e-06, No Iterations 8
bounding nuTilda, min: -0.000267881 max: 0.445475 average: 0.0512849
ExecutionTime = 8.51 s  ClockTime = 9 s

Time = 97

smoothSolver:  Solving for Ux, Initial residual = 0.00186499, Final residual = 8.09004e-06, No Iterations 8
smoothSolver:  Solving for Uy, Initial residual = 0.0010143, Final residual = 5.6211e-06, No Iterations 8
GAMG:  Solving for p, Initial residual = 0.00190395, Final residual = 1.36638e-05, No Iterations 6
time step continuity errors : sum local = 4.63528e-06, global = 4.02856e-16, cumulative = 2.67107e-15
smoothSolver:  Solving for nuTilda, Initial residual = 0.000921629, Final residual = 4.13437e-06, No Iterations 8
ExecutionTime = 8.59 s  ClockTime = 9 s

Time = 98

smoothSolver:  Solving for Ux, Initial residual = 0.00185357, Final residual = 8.03598e-06, No Iterations 8
smoothSolver:  Solving for Uy, Initial residual = 0.00100518, Final residual = 5.56319e-06, No Iterations 8
GAMG:  Solving for p, Initial residual = 0.00189589, Final residual = 1.361e-05, No Iterations 6
time step continuity errors : sum local = 4.61972e-06, global = 7.06175e-17, cumulative = 2.74169e-15
smoothSolver:  Solving for nuTilda, Initial residual = 0.000903733, Final residual = 4.04783e-06, No Iterations 8
bounding nuTilda, min: -0.000256024 max: 0.445492 average: 0.0507621
ExecutionTime = 8.68 s  ClockTime = 9 s

Time = 99

smoothSolver:  Solving for Ux, Initial residual = 0.00184177, Final residual = 7.97993e-06, No Iterations 8
smoothSolver:  Solving for Uy, Initial residual = 0.000996464, Final residual = 5.50699e-06, No Iterations 8
GAMG:  Solving for p, Initial residual = 0.00188368, Final residual = 1.34895e-05, No Iterations 6
time step continuity errors : sum local = 4.58165e-06, global = -5.586e-17, cumulative = 2.68583e-15
smoothSolver:  Solving for nuTilda, Initial residual = 0.000886282, Final residual = 3.96341e-06, No Iterations 8
ExecutionTime = 8.77 s  ClockTime = 9 s

Time = 100

smoothSolver:  Solving for Ux, Initial residual = 0.0018298, Final residual = 7.9231e-06, No Iterations 8
smoothSolver:  Solving for Uy, Initial residual = 0.000987887, Final residual = 5.45123e-06, No Iterations 8
GAMG:  Solving for p, Initial residual = 0.00187222, Final residual = 1.33132e-05, No Iterations 6
time step continuity errors : sum local = 4.52484e-06, global = 1.45535e-16, cumulative = 2.83137e-15
smoothSolver:  Solving for nuTilda, Initial residual = 0.000869422, Final residual = 3.88163e-06, No Iterations 8
bounding nuTilda, min: -0.000241928 max: 0.44551 average: 0.0502539
ExecutionTime = 8.86 s  ClockTime = 9 s

forces wings output:
    sum of forces:
        pressure : (4.44484 34.6907 9.35185e-20)
        viscous  : (0.29844 -0.0513063 -8.19546e-21)
        porous   : (0 0 0)
    sum of moments:
        pressure : (-1.73453 0.222242 5.66118)
        viscous  : (0.00256531 0.014922 -0.0265218)
        porous   : (0 0 0)

Time = 101

smoothSolver:  Solving for Ux, Initial residual = 0.00181799, Final residual = 7.86712e-06, No Iterations 8
smoothSolver:  Solving for Uy, Initial residual = 0.000978946, Final residual = 5.39421e-06, No Iterations 8
GAMG:  Solving for p, Initial residual = 0.00185807, Final residual = 1.31126e-05, No Iterations 6
time step continuity errors : sum local = 4.45994e-06, global = 2.32643e-16, cumulative = 3.06401e-15
smoothSolver:  Solving for nuTilda, Initial residual = 0.000852833, Final residual = 3.80185e-06, No Iterations 8
ExecutionTime = 8.95 s  ClockTime = 9 s

Time = 102

smoothSolver:  Solving for Ux, Initial residual = 0.00180636, Final residual = 7.8124e-06, No Iterations 8
smoothSolver:  Solving for Uy, Initial residual = 0.000969605, Final residual = 5.33555e-06, No Iterations 8
GAMG:  Solving for p, Initial residual = 0.00184756, Final residual = 1.28689e-05, No Iterations 6
time step continuity errors : sum local = 4.38023e-06, global = -8.54376e-17, cumulative = 2.97857e-15
smoothSolver:  Solving for nuTilda, Initial residual = 0.000836429, Final residual = 3.72384e-06, No Iterations 8
bounding nuTilda, min: -0.000225292 max: 0.445527 average: 0.0497598
ExecutionTime = 9.04 s  ClockTime = 9 s

Time = 103

smoothSolver:  Solving for Ux, Initial residual = 0.00179479, Final residual = 7.75802e-06, No Iterations 8
smoothSolver:  Solving for Uy, Initial residual = 0.00095995, Final residual = 5.27585e-06, No Iterations 8
GAMG:  Solving for p, Initial residual = 0.0018347, Final residual = 1.35462e-05, No Iterations 5
time step continuity errors : sum local = 4.59609e-06, global = -1.10656e-16, cumulative = 2.86792e-15
smoothSolver:  Solving for nuTilda, Initial residual = 0.000820413, Final residual = 3.6478e-06, No Iterations 8
ExecutionTime = 9.12 s  ClockTime = 9 s

Time = 104

smoothSolver:  Solving for Ux, Initial residual = 0.00178365, Final residual = 7.70642e-06, No Iterations 8
smoothSolver:  Solving for Uy, Initial residual = 0.000949164, Final residual = 5.21198e-06, No Iterations 8
GAMG:  Solving for p, Initial residual = 0.00182301, Final residual = 1.76198e-05, No Iterations 5
time step continuity errors : sum local = 5.98706e-06, global = -1.43085e-16, cumulative = 2.72483e-15
smoothSolver:  Solving for nuTilda, Initial residual = 0.000804793, Final residual = 3.57357e-06, No Iterations 8
bounding nuTilda, min: -0.00020596 max: 0.445544 average: 0.0492794
ExecutionTime = 9.21 s  ClockTime = 9 s

Time = 105

smoothSolver:  Solving for Ux, Initial residual = 0.00177077, Final residual = 7.64256e-06, No Iterations 8
smoothSolver:  Solving for Uy, Initial residual = 0.00094174, Final residual = 5.15972e-06, No Iterations 8
GAMG:  Solving for p, Initial residual = 0.00180742, Final residual = 1.34094e-05, No Iterations 5
time step continuity errors : sum local = 4.5485e-06, global = 1.39423e-16, cumulative = 2.86425e-15
smoothSolver:  Solving for nuTilda, Initial residual = 0.000789415, Final residual = 3.50119e-06, No Iterations 8
ExecutionTime = 9.29 s  ClockTime = 9 s

forces wings output:
    sum of forces:
        pressure : (4.50064 35.3904 9.66499e-20)
        viscous  : (0.290199 -0.0503704 -8.36525e-21)
        porous   : (0 0 0)
    sum of moments:
        pressure : (-1.76952 0.225032 5.71168)
        viscous  : (0.00251852 0.01451 -0.0258425)
        porous   : (0 0 0)

Time = 106

smoothSolver:  Solving for Ux, Initial residual = 0.00175894, Final residual = 7.58732e-06, No Iterations 8
smoothSolver:  Solving for Uy, Initial residual = 0.000932174, Final residual = 5.10188e-06, No Iterations 8
GAMG:  Solving for p, Initial residual = 0.00179546, Final residual = 1.39496e-05, No Iterations 5
time step continuity errors : sum local = 4.73787e-06, global = 2.46359e-16, cumulative = 3.11061e-15
smoothSolver:  Solving for nuTilda, Initial residual = 0.000774704, Final residual = 3.43059e-06, No Iterations 8
bounding nuTilda, min: -0.000184466 max: 0.445562 average: 0.0488123
ExecutionTime = 9.38 s  ClockTime = 9 s

Time = 107

smoothSolver:  Solving for Ux, Initial residual = 0.00174748, Final residual = 7.53345e-06, No Iterations 8
smoothSolver:  Solving for Uy, Initial residual = 0.000921946, Final residual = 5.04137e-06, No Iterations 8
GAMG:  Solving for p, Initial residual = 0.00178037, Final residual = 1.37038e-05, No Iterations 5
time step continuity errors : sum local = 4.65758e-06, global = -6.18028e-17, cumulative = 3.04881e-15
smoothSolver:  Solving for nuTilda, Initial residual = 0.000760144, Final residual = 3.36197e-06, No Iterations 8
ExecutionTime = 9.46 s  ClockTime = 9 s

Time = 108

smoothSolver:  Solving for Ux, Initial residual = 0.00173596, Final residual = 7.47856e-06, No Iterations 8
smoothSolver:  Solving for Uy, Initial residual = 0.000911402, Final residual = 4.97905e-06, No Iterations 8
GAMG:  Solving for p, Initial residual = 0.00176859, Final residual = 1.33549e-05, No Iterations 5
time step continuity errors : sum local = 4.54074e-06, global = -1.64195e-17, cumulative = 3.03239e-15
smoothSolver:  Solving for nuTilda, Initial residual = 0.00074584, Final residual = 3.29491e-06, No Iterations 8
bounding nuTilda, min: -0.000160676 max: 0.445579 average: 0.048358
ExecutionTime = 9.55 s  ClockTime = 10 s

Time = 109

smoothSolver:  Solving for Ux, Initial residual = 0.00172422, Final residual = 7.42158e-06, No Iterations 8
smoothSolver:  Solving for Uy, Initial residual = 0.000901033, Final residual = 4.9173e-06, No Iterations 8
GAMG:  Solving for p, Initial residual = 0.00175328, Final residual = 1.35373e-05, No Iterations 5
time step continuity errors : sum local = 4.60536e-06, global = 3.63808e-16, cumulative = 3.3962e-15
smoothSolver:  Solving for nuTilda, Initial residual = 0.000731989, Final residual = 3.22948e-06, No Iterations 8
ExecutionTime = 9.63 s  ClockTime = 10 s

Time = 110

smoothSolver:  Solving for Ux, Initial residual = 0.00171208, Final residual = 7.36264e-06, No Iterations 8
smoothSolver:  Solving for Uy, Initial residual = 0.000891285, Final residual = 4.85831e-06, No Iterations 8
GAMG:  Solving for p, Initial residual = 0.00174185, Final residual = 1.40728e-05, No Iterations 5
time step continuity errors : sum local = 4.79182e-06, global = -1.52109e-16, cumulative = 3.24409e-15
smoothSolver:  Solving for nuTilda, Initial residual = 0.000718505, Final residual = 3.16578e-06, No Iterations 8
bounding nuTilda, min: -0.000134515 max: 0.445596 average: 0.0479161
ExecutionTime = 9.72 s  ClockTime = 10 s

forces wings output:
    sum of forces:
        pressure : (4.55257 36.0838 1.00874e-19)
        viscous  : (0.282324 -0.0494989 -8.67286e-21)
        porous   : (0 0 0)
    sum of moments:
        pressure : (-1.80419 0.227628 5.75539)
        viscous  : (0.00247494 0.0141162 -0.0251918)
        porous   : (0 0 0)

Time = 111

smoothSolver:  Solving for Ux, Initial residual = 0.00169996, Final residual = 7.30362e-06, No Iterations 8
smoothSolver:  Solving for Uy, Initial residual = 0.000881627, Final residual = 4.80055e-06, No Iterations 8
GAMG:  Solving for p, Initial residual = 0.00172207, Final residual = 1.47507e-05, No Iterations 5
time step continuity errors : sum local = 5.02784e-06, global = -1.62218e-16, cumulative = 3.08187e-15
smoothSolver:  Solving for nuTilda, Initial residual = 0.000705293, Final residual = 3.10361e-06, No Iterations 8
ExecutionTime = 9.81 s  ClockTime = 10 s

Time = 112

smoothSolver:  Solving for Ux, Initial residual = 0.00168786, Final residual = 7.2461e-06, No Iterations 8
smoothSolver:  Solving for Uy, Initial residual = 0.000871522, Final residual = 4.7425e-06, No Iterations 8
GAMG:  Solving for p, Initial residual = 0.00170159, Final residual = 1.49449e-05, No Iterations 5
time step continuity errors : sum local = 5.09826e-06, global = -2.39482e-16, cumulative = 2.84239e-15
smoothSolver:  Solving for nuTilda, Initial residual = 0.000692427, Final residual = 3.04281e-06, No Iterations 8
bounding nuTilda, min: -0.000106822 max: 0.445613 average: 0.0474863
ExecutionTime = 9.89 s  ClockTime = 10 s

Time = 113

smoothSolver:  Solving for Ux, Initial residual = 0.0016757, Final residual = 7.1891e-06, No Iterations 8
smoothSolver:  Solving for Uy, Initial residual = 0.000860666, Final residual = 4.6825e-06, No Iterations 8
GAMG:  Solving for p, Initial residual = 0.00167746, Final residual = 1.46782e-05, No Iterations 5
time step continuity errors : sum local = 5.0094e-06, global = 6.11942e-17, cumulative = 2.90358e-15
smoothSolver:  Solving for nuTilda, Initial residual = 0.000679952, Final residual = 2.98315e-06, No Iterations 8
ExecutionTime = 9.97 s  ClockTime = 10 s

Time = 114

smoothSolver:  Solving for Ux, Initial residual = 0.00166346, Final residual = 7.12945e-06, No Iterations 8
smoothSolver:  Solving for Uy, Initial residual = 0.000849893, Final residual = 4.62222e-06, No Iterations 8
GAMG:  Solving for p, Initial residual = 0.00165633, Final residual = 1.39593e-05, No Iterations 5
time step continuity errors : sum local = 4.76754e-06, global = 3.43674e-16, cumulative = 3.24726e-15
smoothSolver:  Solving for nuTilda, Initial residual = 0.000667641, Final residual = 2.92502e-06, No Iterations 8
bounding nuTilda, min: -7.76954e-05 max: 0.44563 average: 0.0470683
ExecutionTime = 10.06 s  ClockTime = 10 s

Time = 115

smoothSolver:  Solving for Ux, Initial residual = 0.00165108, Final residual = 7.06807e-06, No Iterations 8
smoothSolver:  Solving for Uy, Initial residual = 0.000839312, Final residual = 4.56205e-06, No Iterations 8
GAMG:  Solving for p, Initial residual = 0.00163294, Final residual = 1.35129e-05, No Iterations 5
time step continuity errors : sum local = 4.61971e-06, global = 3.75772e-17, cumulative = 3.28484e-15
smoothSolver:  Solving for nuTilda, Initial residual = 0.000655798, Final residual = 2.86833e-06, No Iterations 8
ExecutionTime = 10.15 s  ClockTime = 10 s

forces wings output:
    sum of forces:
        pressure : (4.59837 36.7332 1.05405e-19)
        viscous  : (0.274889 -0.0487183 -8.93723e-21)
        porous   : (0 0 0)
    sum of moments:
        pressure : (-1.83666 0.229918 5.791)
        viscous  : (0.00243591 0.0137445 -0.0245728)
        porous   : (0 0 0)

Time = 116

smoothSolver:  Solving for Ux, Initial residual = 0.00163858, Final residual = 7.00611e-06, No Iterations 8
smoothSolver:  Solving for Uy, Initial residual = 0.000829054, Final residual = 4.5035e-06, No Iterations 8
GAMG:  Solving for p, Initial residual = 0.0016082, Final residual = 1.32457e-05, No Iterations 5
time step continuity errors : sum local = 4.5338e-06, global = -4.99634e-17, cumulative = 3.23487e-15
smoothSolver:  Solving for nuTilda, Initial residual = 0.000644078, Final residual = 2.81277e-06, No Iterations 8
bounding nuTilda, min: -4.73369e-05 max: 0.445646 average: 0.0466616
ExecutionTime = 10.24 s  ClockTime = 10 s

Time = 117

smoothSolver:  Solving for Ux, Initial residual = 0.00162604, Final residual = 6.94416e-06, No Iterations 8
[...]

forces wings output:
    sum of forces:
        pressure : (3.43961 33.6747 5.93561e-20)
        viscous  : (0.0790605 -0.0183236 -3.27467e-20)
        porous   : (0 0 0)
    sum of moments:
        pressure : (-1.68374 0.171981 3.84932)
        viscous  : (0.000916182 0.00395303 -0.00797803)
        porous   : (0 0 0)

Time = 4971

smoothSolver:  Solving for Ux, Initial residual = 4.0552e-07, Final residual = 6.62659e-09, No Iterations 6
smoothSolver:  Solving for Uy, Initial residual = 8.3118e-07, Final residual = 4.05572e-09, No Iterations 8
GAMG:  Solving for p, Initial residual = 1.00133e-06, Final residual = 1.35241e-07, No Iterations 1
time step continuity errors : sum local = 4.5719e-08, global = 3.19825e-17, cumulative = 6.12852e-14
smoothSolver:  Solving for nuTilda, Initial residual = 6.28123e-08, Final residual = 3.75595e-09, No Iterations 4
ExecutionTime = 381.47 s  ClockTime = 382 s

Time = 4972

smoothSolver:  Solving for Ux, Initial residual = 4.03796e-07, Final residual = 6.59622e-09, No Iterations 6
smoothSolver:  Solving for Uy, Initial residual = 8.25971e-07, Final residual = 4.01937e-09, No Iterations 8
GAMG:  Solving for p, Initial residual = 9.83272e-07, Final residual = 9.83272e-07, No Iterations 0
time step continuity errors : sum local = 3.32162e-07, global = 4.85727e-17, cumulative = 6.13338e-14
smoothSolver:  Solving for nuTilda, Initial residual = 6.27914e-08, Final residual = 3.75154e-09, No Iterations 4
ExecutionTime = 381.54 s  ClockTime = 382 s

Time = 4973

smoothSolver:  Solving for Ux, Initial residual = 4.01932e-07, Final residual = 6.54966e-09, No Iterations 6
smoothSolver:  Solving for Uy, Initial residual = 8.20987e-07, Final residual = 3.9657e-09, No Iterations 8
GAMG:  Solving for p, Initial residual = 1.29985e-06, Final residual = 2.94803e-07, No Iterations 1
time step continuity errors : sum local = 9.96666e-08, global = -5.79431e-17, cumulative = 6.12758e-14
smoothSolver:  Solving for nuTilda, Initial residual = 6.26019e-08, Final residual = 3.74455e-09, No Iterations 4
ExecutionTime = 381.61 s  ClockTime = 382 s

Time = 4974

smoothSolver:  Solving for Ux, Initial residual = 4.03345e-07, Final residual = 6.60319e-09, No Iterations 6
smoothSolver:  Solving for Uy, Initial residual = 8.1273e-07, Final residual = 3.94882e-09, No Iterations 8
GAMG:  Solving for p, Initial residual = 1.21602e-06, Final residual = 3.00756e-07, No Iterations 1
time step continuity errors : sum local = 1.01859e-07, global = -8.02629e-17, cumulative = 6.11956e-14
smoothSolver:  Solving for nuTilda, Initial residual = 6.24389e-08, Final residual = 3.73572e-09, No Iterations 4
ExecutionTime = 381.68 s  ClockTime = 382 s

Time = 4975

smoothSolver:  Solving for Ux, Initial residual = 4.06484e-07, Final residual = 6.68498e-09, No Iterations 6
smoothSolver:  Solving for Uy, Initial residual = 8.23375e-07, Final residual = 4.00409e-09, No Iterations 8
GAMG:  Solving for p, Initial residual = 1.21224e-06, Final residual = 2.46415e-07, No Iterations 1
time step continuity errors : sum local = 8.37223e-08, global = 9.0189e-17, cumulative = 6.12857e-14
smoothSolver:  Solving for nuTilda, Initial residual = 6.23306e-08, Final residual = 3.72858e-09, No Iterations 4
ExecutionTime = 381.75 s  ClockTime = 382 s

forces wings output:
    sum of forces:
        pressure : (3.43962 33.675 5.93558e-20)
        viscous  : (0.0790605 -0.0183238 -3.27492e-20)
        porous   : (0 0 0)
    sum of moments:
        pressure : (-1.68375 0.171981 3.84931)
        viscous  : (0.000916189 0.00395303 -0.00797805)
        porous   : (0 0 0)

Time = 4976

smoothSolver:  Solving for Ux, Initial residual = 4.08443e-07, Final residual = 6.7193e-09, No Iterations 6
smoothSolver:  Solving for Uy, Initial residual = 8.35341e-07, Final residual = 4.08103e-09, No Iterations 8
GAMG:  Solving for p, Initial residual = 1.19729e-06, Final residual = 1.90549e-07, No Iterations 1
time step continuity errors : sum local = 6.44945e-08, global = -1.23297e-16, cumulative = 6.11624e-14
smoothSolver:  Solving for nuTilda, Initial residual = 6.22887e-08, Final residual = 3.72393e-09, No Iterations 4
ExecutionTime = 381.82 s  ClockTime = 382 s

Time = 4977

smoothSolver:  Solving for Ux, Initial residual = 4.06613e-07, Final residual = 6.67387e-09, No Iterations 6
smoothSolver:  Solving for Uy, Initial residual = 8.36833e-07, Final residual = 4.09728e-09, No Iterations 8
GAMG:  Solving for p, Initial residual = 1.1049e-06, Final residual = 1.52032e-07, No Iterations 1
time step continuity errors : sum local = 5.14488e-08, global = 2.41473e-16, cumulative = 6.14039e-14
smoothSolver:  Solving for nuTilda, Initial residual = 6.22938e-08, Final residual = 3.72158e-09, No Iterations 4
ExecutionTime = 381.89 s  ClockTime = 382 s

Time = 4978

smoothSolver:  Solving for Ux, Initial residual = 4.03436e-07, Final residual = 6.60422e-09, No Iterations 6
smoothSolver:  Solving for Uy, Initial residual = 8.35453e-07, Final residual = 4.08127e-09, No Iterations 8
GAMG:  Solving for p, Initial residual = 1.03236e-06, Final residual = 1.24574e-07, No Iterations 1
time step continuity errors : sum local = 4.22189e-08, global = 2.27441e-17, cumulative = 6.14267e-14
smoothSolver:  Solving for nuTilda, Initial residual = 6.22952e-08, Final residual = 3.71948e-09, No Iterations 4
ExecutionTime = 381.96 s  ClockTime = 382 s

Time = 4979

smoothSolver:  Solving for Ux, Initial residual = 4.00817e-07, Final residual = 6.55221e-09, No Iterations 6
smoothSolver:  Solving for Uy, Initial residual = 8.30844e-07, Final residual = 4.04381e-09, No Iterations 8
GAMG:  Solving for p, Initial residual = 1.00137e-06, Final residual = 1.44318e-07, No Iterations 1
time step continuity errors : sum local = 4.89351e-08, global = -6.44006e-17, cumulative = 6.13623e-14
smoothSolver:  Solving for nuTilda, Initial residual = 6.22492e-08, Final residual = 3.71583e-09, No Iterations 4
ExecutionTime = 382.03 s  ClockTime = 382 s

Time = 4980

smoothSolver:  Solving for Ux, Initial residual = 3.99527e-07, Final residual = 6.53316e-09, No Iterations 6
smoothSolver:  Solving for Uy, Initial residual = 8.23467e-07, Final residual = 3.99922e-09, No Iterations 8
GAMG:  Solving for p, Initial residual = 9.8596e-07, Final residual = 9.8596e-07, No Iterations 0
time step continuity errors : sum local = 3.33109e-07, global = 2.15583e-16, cumulative = 6.15778e-14
smoothSolver:  Solving for nuTilda, Initial residual = 6.21718e-08, Final residual = 3.71042e-09, No Iterations 4
ExecutionTime = 382.09 s  ClockTime = 382 s

forces wings output:
    sum of forces:
        pressure : (3.43962 33.6752 5.93589e-20)
        viscous  : (0.0790604 -0.0183239 -3.2753e-20)
        porous   : (0 0 0)
    sum of moments:
        pressure : (-1.68376 0.171981 3.84931)
        viscous  : (0.000916195 0.00395302 -0.00797806)
        porous   : (0 0 0)

Time = 4981

smoothSolver:  Solving for Ux, Initial residual = 3.97792e-07, Final residual = 6.48822e-09, No Iterations 6
smoothSolver:  Solving for Uy, Initial residual = 8.1852e-07, Final residual = 3.94643e-09, No Iterations 8
GAMG:  Solving for p, Initial residual = 1.32098e-06, Final residual = 3.41082e-07, No Iterations 1
time step continuity errors : sum local = 1.15358e-07, global = 2.22957e-16, cumulative = 6.18008e-14
smoothSolver:  Solving for nuTilda, Initial residual = 6.19796e-08, Final residual = 3.70411e-09, No Iterations 4
ExecutionTime = 382.16 s  ClockTime = 382 s

Time = 4982

smoothSolver:  Solving for Ux, Initial residual = 4.00829e-07, Final residual = 6.57322e-09, No Iterations 6
smoothSolver:  Solving for Uy, Initial residual = 8.07861e-07, Final residual = 3.92343e-09, No Iterations 8
GAMG:  Solving for p, Initial residual = 1.24243e-06, Final residual = 3.35878e-07, No Iterations 1
time step continuity errors : sum local = 1.13536e-07, global = -2.87068e-16, cumulative = 6.15137e-14
smoothSolver:  Solving for nuTilda, Initial residual = 6.17737e-08, Final residual = 3.69531e-09, No Iterations 4
ExecutionTime = 382.23 s  ClockTime = 382 s

Time = 4983

smoothSolver:  Solving for Ux, Initial residual = 4.05571e-07, Final residual = 6.68256e-09, No Iterations 6
smoothSolver:  Solving for Uy, Initial residual = 8.23219e-07, Final residual = 3.98531e-09, No Iterations 8
GAMG:  Solving for p, Initial residual = 1.25888e-06, Final residual = 2.64721e-07, No Iterations 1
time step continuity errors : sum local = 8.97731e-08, global = 2.23473e-16, cumulative = 6.17372e-14
smoothSolver:  Solving for nuTilda, Initial residual = 6.16444e-08, Final residual = 3.68822e-09, No Iterations 4
ExecutionTime = 382.3 s  ClockTime = 382 s

Time = 4984

smoothSolver:  Solving for Ux, Initial residual = 4.0753e-07, Final residual = 6.71388e-09, No Iterations 6
smoothSolver:  Solving for Uy, Initial residual = 8.36546e-07, Final residual = 4.07163e-09, No Iterations 8
GAMG:  Solving for p, Initial residual = 1.24693e-06, Final residual = 2.12038e-07, No Iterations 1
time step continuity errors : sum local = 7.2091e-08, global = -1.71065e-16, cumulative = 6.15661e-14
smoothSolver:  Solving for nuTilda, Initial residual = 6.16272e-08, Final residual = 3.68417e-09, No Iterations 4
ExecutionTime = 382.36 s  ClockTime = 382 s

Time = 4985

smoothSolver:  Solving for Ux, Initial residual = 4.04498e-07, Final residual = 6.64272e-09, No Iterations 6
smoothSolver:  Solving for Uy, Initial residual = 8.36959e-07, Final residual = 4.09512e-09, No Iterations 8
GAMG:  Solving for p, Initial residual = 1.1462e-06, Final residual = 1.74078e-07, No Iterations 1
time step continuity errors : sum local = 5.88863e-08, global = 1.76672e-16, cumulative = 6.17428e-14
smoothSolver:  Solving for nuTilda, Initial residual = 6.16651e-08, Final residual = 3.68262e-09, No Iterations 4
ExecutionTime = 382.43 s  ClockTime = 383 s

forces wings output:
    sum of forces:
        pressure : (3.43964 33.6756 5.93601e-20)
        viscous  : (0.0790602 -0.018324 -3.27561e-20)
        porous   : (0 0 0)
    sum of moments:
        pressure : (-1.68378 0.171982 3.8493)
        viscous  : (0.000916201 0.00395301 -0.00797807)
        porous   : (0 0 0)

Time = 4986

smoothSolver:  Solving for Ux, Initial residual = 4.00158e-07, Final residual = 6.55339e-09, No Iterations 6
smoothSolver:  Solving for Uy, Initial residual = 8.35899e-07, Final residual = 4.07685e-09, No Iterations 8
GAMG:  Solving for p, Initial residual = 1.05956e-06, Final residual = 1.41125e-07, No Iterations 1
time step continuity errors : sum local = 4.76902e-08, global = -6.52429e-17, cumulative = 6.16776e-14
smoothSolver:  Solving for nuTilda, Initial residual = 6.16997e-08, Final residual = 3.68121e-09, No Iterations 4
ExecutionTime = 382.5 s  ClockTime = 383 s

Time = 4987

smoothSolver:  Solving for Ux, Initial residual = 3.96933e-07, Final residual = 6.49274e-09, No Iterations 6
smoothSolver:  Solving for Uy, Initial residual = 8.32257e-07, Final residual = 4.03656e-09, No Iterations 8
GAMG:  Solving for p, Initial residual = 1.02403e-06, Final residual = 1.48338e-07, No Iterations 1
time step continuity errors : sum local = 5.02221e-08, global = -1.54451e-16, cumulative = 6.15231e-14
smoothSolver:  Solving for nuTilda, Initial residual = 6.16941e-08, Final residual = 3.67829e-09, No Iterations 4
ExecutionTime = 382.57 s  ClockTime = 383 s

Time = 4988

smoothSolver:  Solving for Ux, Initial residual = 3.9553e-07, Final residual = 6.47149e-09, No Iterations 6
smoothSolver:  Solving for Uy, Initial residual = 8.24153e-07, Final residual = 3.98381e-09, No Iterations 8
GAMG:  Solving for p, Initial residual = 1.00557e-06, Final residual = 2.03073e-07, No Iterations 1
time step continuity errors : sum local = 6.87018e-08, global = -2.22868e-16, cumulative = 6.13002e-14
smoothSolver:  Solving for nuTilda, Initial residual = 6.16008e-08, Final residual = 3.67329e-09, No Iterations 4
ExecutionTime = 382.64 s  ClockTime = 383 s

Time = 4989

smoothSolver:  Solving for Ux, Initial residual = 3.96305e-07, Final residual = 6.49674e-09, No Iterations 6
smoothSolver:  Solving for Uy, Initial residual = 8.14761e-07, Final residual = 3.94024e-09, No Iterations 8
GAMG:  Solving for p, Initial residual = 1.01352e-06, Final residual = 2.4582e-07, No Iterations 1
time step continuity errors : sum local = 8.30965e-08, global = -6.96934e-17, cumulative = 6.12306e-14
smoothSolver:  Solving for nuTilda, Initial residual = 6.14053e-08, Final residual = 3.66627e-09, No Iterations 4
ExecutionTime = 382.71 s  ClockTime = 383 s

Time = 4990

smoothSolver:  Solving for Ux, Initial residual = 3.98868e-07, Final residual = 6.55663e-09, No Iterations 6
smoothSolver:  Solving for Uy, Initial residual = 8.12161e-07, Final residual = 3.93816e-09, No Iterations 8
GAMG:  Solving for p, Initial residual = 1.06074e-06, Final residual = 2.45798e-07, No Iterations 1
time step continuity errors : sum local = 8.31355e-08, global = 2.22973e-17, cumulative = 6.12529e-14
smoothSolver:  Solving for nuTilda, Initial residual = 6.1205e-08, Final residual = 3.66034e-09, No Iterations 4
ExecutionTime = 382.78 s  ClockTime = 383 s

forces wings output:
    sum of forces:
        pressure : (3.43964 33.6758 5.93607e-20)
        viscous  : (0.0790601 -0.0183241 -3.27589e-20)
        porous   : (0 0 0)
    sum of moments:
        pressure : (-1.68379 0.171982 3.8493)
        viscous  : (0.000916207 0.00395301 -0.00797808)
        porous   : (0 0 0)

Time = 4991

smoothSolver:  Solving for Ux, Initial residual = 4.01389e-07, Final residual = 6.60784e-09, No Iterations 6
smoothSolver:  Solving for Uy, Initial residual = 8.16609e-07, Final residual = 3.97883e-09, No Iterations 8
GAMG:  Solving for p, Initial residual = 1.08841e-06, Final residual = 2.13372e-07, No Iterations 1
time step continuity errors : sum local = 7.23625e-08, global = -6.13458e-18, cumulative = 6.12467e-14
smoothSolver:  Solving for nuTilda, Initial residual = 6.10828e-08, Final residual = 3.65592e-09, No Iterations 4
ExecutionTime = 382.85 s  ClockTime = 383 s

Time = 4992

smoothSolver:  Solving for Ux, Initial residual = 4.01544e-07, Final residual = 6.60281e-09, No Iterations 6
smoothSolver:  Solving for Uy, Initial residual = 8.2213e-07, Final residual = 4.02009e-09, No Iterations 8
GAMG:  Solving for p, Initial residual = 1.0643e-06, Final residual = 1.7505e-07, No Iterations 1
time step continuity errors : sum local = 5.92038e-08, global = 3.76632e-17, cumulative = 6.12844e-14
smoothSolver:  Solving for nuTilda, Initial residual = 6.10507e-08, Final residual = 3.65304e-09, No Iterations 4
ExecutionTime = 382.92 s  ClockTime = 383 s

Time = 4993

smoothSolver:  Solving for Ux, Initial residual = 3.99372e-07, Final residual = 6.55478e-09, No Iterations 6
smoothSolver:  Solving for Uy, Initial residual = 8.24651e-07, Final residual = 4.03399e-09, No Iterations 8
GAMG:  Solving for p, Initial residual = 1.02307e-06, Final residual = 1.43998e-07, No Iterations 1
time step continuity errors : sum local = 4.86734e-08, global = -1.53388e-16, cumulative = 6.1131e-14
smoothSolver:  Solving for nuTilda, Initial residual = 6.10719e-08, Final residual = 3.65033e-09, No Iterations 4
ExecutionTime = 382.99 s  ClockTime = 383 s

Time = 4994

smoothSolver:  Solving for Ux, Initial residual = 3.9656e-07, Final residual = 6.49961e-09, No Iterations 6
smoothSolver:  Solving for Uy, Initial residual = 8.23913e-07, Final residual = 4.01957e-09, No Iterations 8
GAMG:  Solving for p, Initial residual = 9.88246e-07, Final residual = 9.88246e-07, No Iterations 0
time step continuity errors : sum local = 3.33899e-07, global = -4.48081e-17, cumulative = 6.10862e-14
smoothSolver:  Solving for nuTilda, Initial residual = 6.11432e-08, Final residual = 3.64759e-09, No Iterations 4
ExecutionTime = 383.06 s  ClockTime = 383 s

Time = 4995

smoothSolver:  Solving for Ux, Initial residual = 3.94568e-07, Final residual = 6.45234e-09, No Iterations 6
smoothSolver:  Solving for Uy, Initial residual = 8.18693e-07, Final residual = 3.96435e-09, No Iterations 8
GAMG:  Solving for p, Initial residual = 1.30822e-06, Final residual = 2.26436e-07, No Iterations 1
time step continuity errors : sum local = 7.65273e-08, global = -2.58357e-16, cumulative = 6.08278e-14
smoothSolver:  Solving for nuTilda, Initial residual = 6.10077e-08, Final residual = 3.64271e-09, No Iterations 4
ExecutionTime = 383.13 s  ClockTime = 383 s

forces wings output:
    sum of forces:
        pressure : (3.43965 33.676 5.93625e-20)
        viscous  : (0.07906 -0.0183243 -3.27622e-20)
        porous   : (0 0 0)
    sum of moments:
        pressure : (-1.6838 0.171982 3.84929)
        viscous  : (0.000916213 0.003953 -0.00797809)
        porous   : (0 0 0)

Time = 4996

smoothSolver:  Solving for Ux, Initial residual = 3.93713e-07, Final residual = 6.4503e-09, No Iterations 6
smoothSolver:  Solving for Uy, Initial residual = 8.11956e-07, Final residual = 3.93082e-09, No Iterations 8
GAMG:  Solving for p, Initial residual = 1.17533e-06, Final residual = 2.46744e-07, No Iterations 1
time step continuity errors : sum local = 8.34594e-08, global = 3.19596e-16, cumulative = 6.11474e-14
smoothSolver:  Solving for nuTilda, Initial residual = 6.08822e-08, Final residual = 3.63553e-09, No Iterations 4
ExecutionTime = 383.2 s  ClockTime = 383 s

Time = 4997

smoothSolver:  Solving for Ux, Initial residual = 3.94728e-07, Final residual = 6.48941e-09, No Iterations 6
smoothSolver:  Solving for Uy, Initial residual = 8.13317e-07, Final residual = 3.93778e-09, No Iterations 8
GAMG:  Solving for p, Initial residual = 1.13467e-06, Final residual = 2.39998e-07, No Iterations 1
time step continuity errors : sum local = 8.13454e-08, global = -1.24115e-16, cumulative = 6.10233e-14
smoothSolver:  Solving for nuTilda, Initial residual = 6.07327e-08, Final residual = 3.62802e-09, No Iterations 4
ExecutionTime = 383.27 s  ClockTime = 383 s

Time = 4998

smoothSolver:  Solving for Ux, Initial residual = 3.96755e-07, Final residual = 6.53968e-09, No Iterations 6
smoothSolver:  Solving for Uy, Initial residual = 8.18629e-07, Final residual = 3.98309e-09, No Iterations 8
GAMG:  Solving for p, Initial residual = 1.15129e-06, Final residual = 2.10621e-07, No Iterations 1
time step continuity errors : sum local = 7.12313e-08, global = -1.52432e-16, cumulative = 6.08709e-14
smoothSolver:  Solving for nuTilda, Initial residual = 6.06216e-08, Final residual = 3.62255e-09, No Iterations 4
ExecutionTime = 383.34 s  ClockTime = 383 s

Time = 4999

smoothSolver:  Solving for Ux, Initial residual = 3.97518e-07, Final residual = 6.5506e-09, No Iterations 6
smoothSolver:  Solving for Uy, Initial residual = 8.21789e-07, Final residual = 4.01999e-09, No Iterations 8
GAMG:  Solving for p, Initial residual = 1.10134e-06, Final residual = 1.67136e-07, No Iterations 1
time step continuity errors : sum local = 5.66672e-08, global = 4.49327e-17, cumulative = 6.09158e-14
smoothSolver:  Solving for nuTilda, Initial residual = 6.0554e-08, Final residual = 3.61921e-09, No Iterations 4
ExecutionTime = 383.4 s  ClockTime = 384 s

Time = 5000

smoothSolver:  Solving for Ux, Initial residual = 3.96295e-07, Final residual = 6.51391e-09, No Iterations 6
smoothSolver:  Solving for Uy, Initial residual = 8.22265e-07, Final residual = 4.02252e-09, No Iterations 8
GAMG:  Solving for p, Initial residual = 1.02965e-06, Final residual = 1.32113e-07, No Iterations 1
time step continuity errors : sum local = 4.46735e-08, global = 3.23941e-17, cumulative = 6.09482e-14
smoothSolver:  Solving for nuTilda, Initial residual = 6.05367e-08, Final residual = 3.61707e-09, No Iterations 4
ExecutionTime = 383.6 s  ClockTime = 384 s

forces wings output:
    sum of forces:
        pressure : (3.43966 33.6764 5.93645e-20)
        viscous  : (0.0790598 -0.0183244 -3.27653e-20)
        porous   : (0 0 0)
    sum of moments:
        pressure : (-1.68382 0.171983 3.84929)
        viscous  : (0.000916219 0.00395299 -0.0079781)
        porous   : (0 0 0)

End

