/*---------------------------------------------------------------------------*\
| =========                 |                                                 |
| \\      /  F ield         | OpenFOAM: The Open Source CFD Toolbox           |
|  \\    /   O peration     | Version:  2.3.0                                 |
|   \\  /    A nd           | Web:      www.OpenFOAM.org                      |
|    \\/     M anipulation  |                                                 |
\*---------------------------------------------------------------------------*/
Build  : 2.3.0-f5222ca19ce6
Exec   : simpleFoam -case Runs/first_flatplate_300_4/case
Date   : Jan 11 2015
Time   : 12:44:00
Host   : "lordvon-XPS-8300"
PID    : 5802
Case   : Runs/first_flatplate_300_4/case
nProcs : 1
sigFpe : Enabling floating point exception trapping (FOAM_SIGFPE).
fileModificationChecking : Monitoring run-time modified files using timeStampMaster
allowSystemOperations : Disallowing user-supplied system call operations

// * * * * * * * * * * * * * * * * * * * * * * * * * * * * * * * * * * * * * //
Create time

Create mesh for time = 0

Reading field p

Reading field U

Reading/calculating face flux field phi

Selecting incompressible transport model Newtonian
Selecting RAS turbulence model SpalartAllmaras
SpalartAllmarasCoeffs
{
    sigmaNut        0.66666;
    kappa           0.41;
    Cb1             0.1355;
    Cb2             0.622;
    Cw2             0.3;
    Cw3             2;
    Cv1             7.1;
    Cv2             5;
}

    Employing Ashford correction
No finite volume options present


SIMPLE: convergence criteria
    field p	 tolerance 1e-12
    field U	 tolerance 1e-12
    field nuTilda	 tolerance 1e-12


Starting time loop

forces wings:
    Not including porosity effects

Time = 1

smoothSolver:  Solving for Ux, Initial residual = 1, Final residual = 0.00525062, No Iterations 6
smoothSolver:  Solving for Uy, Initial residual = 1, Final residual = 0.00827257, No Iterations 4
GAMG:  Solving for p, Initial residual = 1, Final residual = 0.00713691, No Iterations 9
time step continuity errors : sum local = 0.000625027, global = -2.48173e-16, cumulative = -2.48173e-16
smoothSolver:  Solving for nuTilda, Initial residual = 1, Final residual = 0.00400539, No Iterations 4
ExecutionTime = 0.36 s  ClockTime = 1 s

Time = 2

smoothSolver:  Solving for Ux, Initial residual = 0.467311, Final residual = 0.0018813, No Iterations 8
smoothSolver:  Solving for Uy, Initial residual = 0.674744, Final residual = 0.00373234, No Iterations 8
GAMG:  Solving for p, Initial residual = 0.720529, Final residual = 0.00577297, No Iterations 5
time step continuity errors : sum local = 0.000987137, global = 4.22808e-17, cumulative = -2.05892e-16
smoothSolver:  Solving for nuTilda, Initial residual = 0.187076, Final residual = 0.000745397, No Iterations 6
ExecutionTime = 0.45 s  ClockTime = 1 s

Time = 3

smoothSolver:  Solving for Ux, Initial residual = 0.209079, Final residual = 0.000820128, No Iterations 8
smoothSolver:  Solving for Uy, Initial residual = 0.251802, Final residual = 0.00136526, No Iterations 8
GAMG:  Solving for p, Initial residual = 0.529375, Final residual = 0.00512911, No Iterations 7
time step continuity errors : sum local = 0.00117533, global = -1.44605e-17, cumulative = -2.20352e-16
smoothSolver:  Solving for nuTilda, Initial residual = 0.0962153, Final residual = 0.000894265, No Iterations 6
ExecutionTime = 0.54 s  ClockTime = 1 s

Time = 4

smoothSolver:  Solving for Ux, Initial residual = 0.0903082, Final residual = 0.000236156, No Iterations 8
smoothSolver:  Solving for Uy, Initial residual = 0.0791578, Final residual = 0.000393442, No Iterations 8
GAMG:  Solving for p, Initial residual = 0.396795, Final residual = 0.00290183, No Iterations 7
time step continuity errors : sum local = 0.000712237, global = -5.20769e-17, cumulative = -2.72429e-16
smoothSolver:  Solving for nuTilda, Initial residual = 0.0732464, Final residual = 0.00021228, No Iterations 8
ExecutionTime = 0.63 s  ClockTime = 1 s

Time = 5

smoothSolver:  Solving for Ux, Initial residual = 0.151692, Final residual = 0.000619017, No Iterations 8
smoothSolver:  Solving for Uy, Initial residual = 0.235895, Final residual = 0.00124864, No Iterations 8
GAMG:  Solving for p, Initial residual = 0.328038, Final residual = 0.00210856, No Iterations 6
time step continuity errors : sum local = 0.000559605, global = -1.06512e-16, cumulative = -3.78941e-16
smoothSolver:  Solving for nuTilda, Initial residual = 0.0601381, Final residual = 0.00019125, No Iterations 8
ExecutionTime = 0.72 s  ClockTime = 1 s

forces wings output:
    sum of forces:
        pressure : (-35.6147 -509.314 3.44695e-19)
        viscous  : (0.534762 -0.0264686 -1.19872e-20)
        porous   : (0 0 0)
    sum of moments:
        pressure : (25.4657 -1.78073 -130.331)
        viscous  : (0.00132343 0.0267381 0.00276146)
        porous   : (0 0 0)

Time = 6

smoothSolver:  Solving for Ux, Initial residual = 0.118854, Final residual = 0.000436811, No Iterations 8
smoothSolver:  Solving for Uy, Initial residual = 0.224888, Final residual = 0.00118018, No Iterations 8
GAMG:  Solving for p, Initial residual = 0.26559, Final residual = 0.00236523, No Iterations 7
time step continuity errors : sum local = 0.000662117, global = -2.6646e-17, cumulative = -4.05587e-16
smoothSolver:  Solving for nuTilda, Initial residual = 0.0500146, Final residual = 0.000165316, No Iterations 8
ExecutionTime = 0.82 s  ClockTime = 1 s

Time = 7

smoothSolver:  Solving for Ux, Initial residual = 0.0804873, Final residual = 0.000238752, No Iterations 8
smoothSolver:  Solving for Uy, Initial residual = 0.177409, Final residual = 0.000899237, No Iterations 8
GAMG:  Solving for p, Initial residual = 0.201217, Final residual = 0.00144653, No Iterations 6
time step continuity errors : sum local = 0.000413088, global = 2.10523e-16, cumulative = -1.95064e-16
smoothSolver:  Solving for nuTilda, Initial residual = 0.0420863, Final residual = 0.000142643, No Iterations 8
ExecutionTime = 0.9 s  ClockTime = 1 s

Time = 8

smoothSolver:  Solving for Ux, Initial residual = 0.0914882, Final residual = 0.000359393, No Iterations 8
smoothSolver:  Solving for Uy, Initial residual = 0.188204, Final residual = 0.000974464, No Iterations 8
GAMG:  Solving for p, Initial residual = 0.198141, Final residual = 0.00110385, No Iterations 6
time step continuity errors : sum local = 0.00033055, global = 9.1192e-17, cumulative = -1.03872e-16
smoothSolver:  Solving for nuTilda, Initial residual = 0.0359034, Final residual = 0.000124018, No Iterations 8
ExecutionTime = 1 s  ClockTime = 1 s

Time = 9

smoothSolver:  Solving for Ux, Initial residual = 0.0546699, Final residual = 0.000190074, No Iterations 8
smoothSolver:  Solving for Uy, Initial residual = 0.0553853, Final residual = 0.00027853, No Iterations 8
GAMG:  Solving for p, Initial residual = 0.160664, Final residual = 0.00117356, No Iterations 7
time step continuity errors : sum local = 0.000358829, global = -2.83222e-16, cumulative = -3.87094e-16
smoothSolver:  Solving for nuTilda, Initial residual = 0.0309764, Final residual = 0.000109055, No Iterations 8
ExecutionTime = 1.09 s  ClockTime = 2 s

Time = 10

smoothSolver:  Solving for Ux, Initial residual = 0.0427467, Final residual = 0.000141786, No Iterations 8
smoothSolver:  Solving for Uy, Initial residual = 0.0771685, Final residual = 0.000388414, No Iterations 8
GAMG:  Solving for p, Initial residual = 0.127364, Final residual = 0.000976509, No Iterations 5
time step continuity errors : sum local = 0.000299454, global = 2.99535e-16, cumulative = -8.75594e-17
smoothSolver:  Solving for nuTilda, Initial residual = 0.0270922, Final residual = 9.70991e-05, No Iterations 8
ExecutionTime = 1.18 s  ClockTime = 2 s

forces wings output:
    sum of forces:
        pressure : (-21.1 -301.744 1.62925e-19)
        viscous  : (0.517712 -0.0460007 -1.29901e-20)
        porous   : (0 0 0)
    sum of moments:
        pressure : (15.0872 -1.055 -78.875)
        viscous  : (0.00230003 0.0258856 -0.00250927)
        porous   : (0 0 0)

Time = 11

smoothSolver:  Solving for Ux, Initial residual = 0.044929, Final residual = 0.000170513, No Iterations 8
smoothSolver:  Solving for Uy, Initial residual = 0.107886, Final residual = 0.000545397, No Iterations 8
GAMG:  Solving for p, Initial residual = 0.125813, Final residual = 0.000862068, No Iterations 6
time step continuity errors : sum local = 0.00026796, global = -4.48181e-17, cumulative = -1.32378e-16
smoothSolver:  Solving for nuTilda, Initial residual = 0.0238666, Final residual = 8.74065e-05, No Iterations 8
ExecutionTime = 1.28 s  ClockTime = 2 s

Time = 12

smoothSolver:  Solving for Ux, Initial residual = 0.0314466, Final residual = 9.76642e-05, No Iterations 8
smoothSolver:  Solving for Uy, Initial residual = 0.0339037, Final residual = 0.000148534, No Iterations 8
GAMG:  Solving for p, Initial residual = 0.101846, Final residual = 0.00095662, No Iterations 6
time step continuity errors : sum local = 0.000294901, global = 6.53877e-17, cumulative = -6.69898e-17
smoothSolver:  Solving for nuTilda, Initial residual = 0.0211545, Final residual = 7.93775e-05, No Iterations 8
ExecutionTime = 1.37 s  ClockTime = 2 s

Time = 13

smoothSolver:  Solving for Ux, Initial residual = 0.0323505, Final residual = 0.000104056, No Iterations 8
smoothSolver:  Solving for Uy, Initial residual = 0.0685177, Final residual = 0.000328656, No Iterations 8
GAMG:  Solving for p, Initial residual = 0.0845713, Final residual = 0.000762532, No Iterations 5
time step continuity errors : sum local = 0.000230538, global = -2.20635e-16, cumulative = -2.87625e-16
smoothSolver:  Solving for nuTilda, Initial residual = 0.0188498, Final residual = 7.26245e-05, No Iterations 8
ExecutionTime = 1.46 s  ClockTime = 2 s

Time = 14

smoothSolver:  Solving for Ux, Initial residual = 0.0323689, Final residual = 0.000117957, No Iterations 8
smoothSolver:  Solving for Uy, Initial residual = 0.0543679, Final residual = 0.000260232, No Iterations 8
GAMG:  Solving for p, Initial residual = 0.0851075, Final residual = 0.000593797, No Iterations 6
time step continuity errors : sum local = 0.000184569, global = -9.18112e-18, cumulative = -2.96806e-16
smoothSolver:  Solving for nuTilda, Initial residual = 0.0168952, Final residual = 6.69235e-05, No Iterations 8
ExecutionTime = 1.55 s  ClockTime = 2 s

Time = 15

smoothSolver:  Solving for Ux, Initial residual = 0.0230113, Final residual = 7.82373e-05, No Iterations 8
smoothSolver:  Solving for Uy, Initial residual = 0.0169011, Final residual = 6.9745e-05, No Iterations 8
GAMG:  Solving for p, Initial residual = 0.0684211, Final residual = 0.000628029, No Iterations 5
time step continuity errors : sum local = 0.000192743, global = -1.5087e-16, cumulative = -4.47676e-16
smoothSolver:  Solving for nuTilda, Initial residual = 0.0152213, Final residual = 6.20914e-05, No Iterations 8
ExecutionTime = 1.64 s  ClockTime = 2 s

forces wings output:
    sum of forces:
        pressure : (-7.06793 -101.076 -4.77565e-20)
        viscous  : (0.502608 -0.0428341 -3.58504e-21)
        porous   : (0 0 0)
    sum of moments:
        pressure : (5.05381 -0.353397 -27.3872)
        viscous  : (0.00214171 0.0251304 -0.00201612)
        porous   : (0 0 0)

Time = 16

smoothSolver:  Solving for Ux, Initial residual = 0.0192982, Final residual = 6.80593e-05, No Iterations 8
smoothSolver:  Solving for Uy, Initial residual = 0.0383145, Final residual = 0.000185029, No Iterations 8
GAMG:  Solving for p, Initial residual = 0.0588047, Final residual = 0.000410298, No Iterations 6
time step continuity errors : sum local = 0.000124871, global = -1.07097e-16, cumulative = -5.54773e-16
smoothSolver:  Solving for nuTilda, Initial residual = 0.0137802, Final residual = 5.79465e-05, No Iterations 8
ExecutionTime = 1.73 s  ClockTime = 2 s

Time = 17

smoothSolver:  Solving for Ux, Initial residual = 0.0153155, Final residual = 5.57768e-05, No Iterations 8
smoothSolver:  Solving for Uy, Initial residual = 0.0313955, Final residual = 0.000149644, No Iterations 8
GAMG:  Solving for p, Initial residual = 0.0568764, Final residual = 0.000376568, No Iterations 6
time step continuity errors : sum local = 0.000116394, global = -2.47448e-16, cumulative = -8.02221e-16
smoothSolver:  Solving for nuTilda, Initial residual = 0.0125599, Final residual = 5.42945e-05, No Iterations 8
ExecutionTime = 1.82 s  ClockTime = 2 s

Time = 18

smoothSolver:  Solving for Ux, Initial residual = 0.0118291, Final residual = 3.81441e-05, No Iterations 8
smoothSolver:  Solving for Uy, Initial residual = 0.0170707, Final residual = 7.2442e-05, No Iterations 8
GAMG:  Solving for p, Initial residual = 0.0444203, Final residual = 0.000318277, No Iterations 5
time step continuity errors : sum local = 9.62746e-05, global = -2.66053e-16, cumulative = -1.06827e-15
smoothSolver:  Solving for nuTilda, Initial residual = 0.0115168, Final residual = 5.10188e-05, No Iterations 8
ExecutionTime = 1.91 s  ClockTime = 2 s

Time = 19

smoothSolver:  Solving for Ux, Initial residual = 0.0131121, Final residual = 4.60635e-05, No Iterations 8
smoothSolver:  Solving for Uy, Initial residual = 0.0261712, Final residual = 0.00011999, No Iterations 8
GAMG:  Solving for p, Initial residual = 0.0382626, Final residual = 0.000209053, No Iterations 6
time step continuity errors : sum local = 6.33245e-05, global = 9.79134e-17, cumulative = -9.7036e-16
smoothSolver:  Solving for nuTilda, Initial residual = 0.0106116, Final residual = 4.80541e-05, No Iterations 8
ExecutionTime = 2 s  ClockTime = 3 s

Time = 20

smoothSolver:  Solving for Ux, Initial residual = 0.0120049, Final residual = 4.32687e-05, No Iterations 8
smoothSolver:  Solving for Uy, Initial residual = 0.014969, Final residual = 6.64091e-05, No Iterations 8
GAMG:  Solving for p, Initial residual = 0.0366844, Final residual = 0.000302683, No Iterations 5
time step continuity errors : sum local = 9.2514e-05, global = -2.79049e-16, cumulative = -1.24941e-15
smoothSolver:  Solving for nuTilda, Initial residual = 0.00983933, Final residual = 4.53858e-05, No Iterations 8
ExecutionTime = 2.09 s  ClockTime = 3 s

forces wings output:
    sum of forces:
        pressure : (-0.819672 -11.7219 -1.60811e-19)
        viscous  : (0.487796 -0.0372263 3.38464e-21)
        porous   : (0 0 0)
    sum of moments:
        pressure : (0.586093 -0.0409836 -4.17874)
        viscous  : (0.00186132 0.0243898 -0.000853591)
        porous   : (0 0 0)

Time = 21

smoothSolver:  Solving for Ux, Initial residual = 0.00977841, Final residual = 3.50406e-05, No Iterations 8
smoothSolver:  Solving for Uy, Initial residual = 0.0111251, Final residual = 4.88716e-05, No Iterations 8
GAMG:  Solving for p, Initial residual = 0.0295552, Final residual = 0.000151038, No Iterations 5
time step continuity errors : sum local = 4.58833e-05, global = -2.68133e-17, cumulative = -1.27622e-15
smoothSolver:  Solving for nuTilda, Initial residual = 0.0091846, Final residual = 4.29929e-05, No Iterations 8
ExecutionTime = 2.18 s  ClockTime = 3 s

Time = 22

smoothSolver:  Solving for Ux, Initial residual = 0.00827899, Final residual = 3.02264e-05, No Iterations 8
smoothSolver:  Solving for Uy, Initial residual = 0.0157971, Final residual = 7.32145e-05, No Iterations 8
GAMG:  Solving for p, Initial residual = 0.025608, Final residual = 0.000244555, No Iterations 5
time step continuity errors : sum local = 7.41961e-05, global = 2.03937e-16, cumulative = -1.07229e-15
smoothSolver:  Solving for nuTilda, Initial residual = 0.00862487, Final residual = 4.07955e-05, No Iterations 8
ExecutionTime = 2.26 s  ClockTime = 3 s

Time = 23

smoothSolver:  Solving for Ux, Initial residual = 0.00672397, Final residual = 2.34522e-05, No Iterations 8
smoothSolver:  Solving for Uy, Initial residual = 0.00883353, Final residual = 3.86166e-05, No Iterations 8
GAMG:  Solving for p, Initial residual = 0.0244433, Final residual = 0.000183419, No Iterations 5
time step continuity errors : sum local = 5.53011e-05, global = -2.0688e-16, cumulative = -1.27917e-15
smoothSolver:  Solving for nuTilda, Initial residual = 0.00813666, Final residual = 3.87536e-05, No Iterations 8
ExecutionTime = 2.35 s  ClockTime = 3 s

Time = 24

smoothSolver:  Solving for Ux, Initial residual = 0.00622292, Final residual = 2.03823e-05, No Iterations 8
smoothSolver:  Solving for Uy, Initial residual = 0.00924233, Final residual = 4.13785e-05, No Iterations 8
GAMG:  Solving for p, Initial residual = 0.0201646, Final residual = 0.000109932, No Iterations 5
time step continuity errors : sum local = 3.32797e-05, global = 1.68166e-16, cumulative = -1.111e-15
smoothSolver:  Solving for nuTilda, Initial residual = 0.00770298, Final residual = 3.6825e-05, No Iterations 8
ExecutionTime = 2.44 s  ClockTime = 3 s

Time = 25

smoothSolver:  Solving for Ux, Initial residual = 0.0067407, Final residual = 2.32455e-05, No Iterations 8
smoothSolver:  Solving for Uy, Initial residual = 0.00923286, Final residual = 4.25302e-05, No Iterations 8
GAMG:  Solving for p, Initial residual = 0.0172332, Final residual = 0.000168085, No Iterations 5
time step continuity errors : sum local = 5.04706e-05, global = -1.62549e-16, cumulative = -1.27355e-15
smoothSolver:  Solving for nuTilda, Initial residual = 0.00730721, Final residual = 3.50236e-05, No Iterations 8
ExecutionTime = 2.52 s  ClockTime = 3 s

forces wings output:
    sum of forces:
        pressure : (0.78161 11.1775 -2.64378e-19)
        viscous  : (0.473622 -0.0337989 7.9402e-21)
        porous   : (0 0 0)
    sum of moments:
        pressure : (-0.558877 0.0390805 1.57403)
        viscous  : (0.00168995 0.0236811 -0.000233753)
        porous   : (0 0 0)

Time = 26

smoothSolver:  Solving for Ux, Initial residual = 0.00626954, Final residual = 2.23853e-05, No Iterations 8
smoothSolver:  Solving for Uy, Initial residual = 0.00439755, Final residual = 1.8988e-05, No Iterations 8
GAMG:  Solving for p, Initial residual = 0.0161079, Final residual = 8.71428e-05, No Iterations 5
time step continuity errors : sum local = 2.64747e-05, global = 1.79837e-16, cumulative = -1.09371e-15
smoothSolver:  Solving for nuTilda, Initial residual = 0.00694619, Final residual = 3.33377e-05, No Iterations 8
ExecutionTime = 2.61 s  ClockTime = 3 s

Time = 27

smoothSolver:  Solving for Ux, Initial residual = 0.00552409, Final residual = 2.04989e-05, No Iterations 8
smoothSolver:  Solving for Uy, Initial residual = 0.00606923, Final residual = 2.75072e-05, No Iterations 8
GAMG:  Solving for p, Initial residual = 0.0139603, Final residual = 8.12246e-05, No Iterations 5
time step continuity errors : sum local = 2.45232e-05, global = -2.99777e-18, cumulative = -1.09671e-15
smoothSolver:  Solving for nuTilda, Initial residual = 0.00661964, Final residual = 3.17956e-05, No Iterations 8
bounding nuTilda, min: -0.000139986 max: 0.423194 average: 0.0850726
ExecutionTime = 2.7 s  ClockTime = 3 s

Time = 28

smoothSolver:  Solving for Ux, Initial residual = 0.00490934, Final residual = 1.85655e-05, No Iterations 8
smoothSolver:  Solving for Uy, Initial residual = 0.00582182, Final residual = 2.70897e-05, No Iterations 8
GAMG:  Solving for p, Initial residual = 0.0118507, Final residual = 0.000106315, No Iterations 5
time step continuity errors : sum local = 3.21486e-05, global = 2.63835e-16, cumulative = -8.32873e-16
smoothSolver:  Solving for nuTilda, Initial residual = 0.00631767, Final residual = 3.03549e-05, No Iterations 8
ExecutionTime = 2.8 s  ClockTime = 3 s

Time = 29

smoothSolver:  Solving for Ux, Initial residual = 0.0044841, Final residual = 1.62764e-05, No Iterations 8
smoothSolver:  Solving for Uy, Initial residual = 0.00381485, Final residual = 1.68493e-05, No Iterations 8
GAMG:  Solving for p, Initial residual = 0.0106067, Final residual = 7.95879e-05, No Iterations 5
time step continuity errors : sum local = 2.4273e-05, global = -4.83527e-17, cumulative = -8.81226e-16
smoothSolver:  Solving for nuTilda, Initial residual = 0.00604402, Final residual = 2.9045e-05, No Iterations 8
ExecutionTime = 2.88 s  ClockTime = 3 s

Time = 30

smoothSolver:  Solving for Ux, Initial residual = 0.00453946, Final residual = 1.62193e-05, No Iterations 8
smoothSolver:  Solving for Uy, Initial residual = 0.00448629, Final residual = 2.03413e-05, No Iterations 8
GAMG:  Solving for p, Initial residual = 0.00980074, Final residual = 6.46145e-05, No Iterations 5
time step continuity errors : sum local = 1.93381e-05, global = 1.66477e-17, cumulative = -8.64578e-16
smoothSolver:  Solving for nuTilda, Initial residual = 0.00578058, Final residual = 2.77939e-05, No Iterations 8
bounding nuTilda, min: -0.000157675 max: 0.423093 average: 0.0822962
ExecutionTime = 2.97 s  ClockTime = 3 s

forces wings output:
    sum of forces:
        pressure : (0.841478 12.0337 -3.00703e-19)
        viscous  : (0.460013 -0.0320353 9.59848e-21)
        porous   : (0 0 0)
    sum of moments:
        pressure : (-0.601685 0.0420739 1.6013)
        viscous  : (0.00160177 0.0230006 -3.62053e-05)
        porous   : (0 0 0)

Time = 31

smoothSolver:  Solving for Ux, Initial residual = 0.00469231, Final residual = 1.70452e-05, No Iterations 8
smoothSolver:  Solving for Uy, Initial residual = 0.00360236, Final residual = 1.65552e-05, No Iterations 8
GAMG:  Solving for p, Initial residual = 0.0084525, Final residual = 5.43863e-05, No Iterations 5
time step continuity errors : sum local = 1.63343e-05, global = -9.10974e-17, cumulative = -9.55676e-16
smoothSolver:  Solving for nuTilda, Initial residual = 0.00553941, Final residual = 2.66557e-05, No Iterations 8
ExecutionTime = 3.06 s  ClockTime = 4 s

Time = 32

smoothSolver:  Solving for Ux, Initial residual = 0.00446124, Final residual = 1.64602e-05, No Iterations 8
smoothSolver:  Solving for Uy, Initial residual = 0.00268987, Final residual = 1.20721e-05, No Iterations 8
GAMG:  Solving for p, Initial residual = 0.00740742, Final residual = 5.90433e-05, No Iterations 4
time step continuity errors : sum local = 1.76942e-05, global = 4.7434e-17, cumulative = -9.08242e-16
smoothSolver:  Solving for nuTilda, Initial residual = 0.00530339, Final residual = 2.55431e-05, No Iterations 8
bounding nuTilda, min: -1.3156e-05 max: 0.422971 average: 0.0805619
ExecutionTime = 3.15 s  ClockTime = 4 s

Time = 33

smoothSolver:  Solving for Ux, Initial residual = 0.00410267, Final residual = 1.54867e-05, No Iterations 8
smoothSolver:  Solving for Uy, Initial residual = 0.00318561, Final residual = 1.48023e-05, No Iterations 8
GAMG:  Solving for p, Initial residual = 0.00715492, Final residual = 3.84086e-05, No Iterations 5
time step continuity errors : sum local = 1.16119e-05, global = 2.76054e-16, cumulative = -6.32188e-16
smoothSolver:  Solving for nuTilda, Initial residual = 0.00509075, Final residual = 2.45532e-05, No Iterations 8
bounding nuTilda, min: -0.000224479 max: 0.422915 average: 0.079728
ExecutionTime = 3.23 s  ClockTime = 4 s

Time = 34

smoothSolver:  Solving for Ux, Initial residual = 0.00379125, Final residual = 1.45467e-05, No Iterations 8
smoothSolver:  Solving for Uy, Initial residual = 0.00262693, Final residual = 1.26884e-05, No Iterations 8
GAMG:  Solving for p, Initial residual = 0.00629913, Final residual = 2.99507e-05, No Iterations 5
time step continuity errors : sum local = 9.08712e-06, global = 4.5585e-17, cumulative = -5.86603e-16
smoothSolver:  Solving for nuTilda, Initial residual = 0.00488297, Final residual = 2.357e-05, No Iterations 8
bounding nuTilda, min: -5.95152e-05 max: 0.422876 average: 0.0789111
ExecutionTime = 3.33 s  ClockTime = 4 s

Time = 35

smoothSolver:  Solving for Ux, Initial residual = 0.00361344, Final residual = 1.39019e-05, No Iterations 8
smoothSolver:  Solving for Uy, Initial residual = 0.00240931, Final residual = 1.15415e-05, No Iterations 8
GAMG:  Solving for p, Initial residual = 0.00545735, Final residual = 4.35044e-05, No Iterations 4
time step continuity errors : sum local = 1.30544e-05, global = -1.77518e-16, cumulative = -7.6412e-16
smoothSolver:  Solving for nuTilda, Initial residual = 0.00469823, Final residual = 2.27045e-05, No Iterations 8
bounding nuTilda, min: -2.61693e-05 max: 0.422856 average: 0.0781166
ExecutionTime = 3.41 s  ClockTime = 4 s

forces wings output:
    sum of forces:
        pressure : (0.627809 8.97809 -3.22215e-19)
        viscous  : (0.446361 -0.030949 1.06558e-20)
        porous   : (0 0 0)
    sum of moments:
        pressure : (-0.448905 0.0313904 0.708385)
        viscous  : (0.00154745 0.0223181 -1.07813e-05)
        porous   : (0 0 0)

Time = 36

smoothSolver:  Solving for Ux, Initial residual = 0.00359883, Final residual = 1.38545e-05, No Iterations 8
smoothSolver:  Solving for Uy, Initial residual = 0.002378, Final residual = 1.16557e-05, No Iterations 8
GAMG:  Solving for p, Initial residual = 0.00521304, Final residual = 2.77558e-05, No Iterations 5
time step continuity errors : sum local = 8.38994e-06, global = 2.16869e-17, cumulative = -7.42433e-16
smoothSolver:  Solving for nuTilda, Initial residual = 0.00451669, Final residual = 2.18273e-05, No Iterations 8
bounding nuTilda, min: -9.51956e-05 max: 0.422852 average: 0.0773368
ExecutionTime = 3.5 s  ClockTime = 4 s

Time = 37

smoothSolver:  Solving for Ux, Initial residual = 0.00358401, Final residual = 1.39274e-05, No Iterations 8
smoothSolver:  Solving for Uy, Initial residual = 0.00184283, Final residual = 9.42239e-06, No Iterations 8
GAMG:  Solving for p, Initial residual = 0.00458926, Final residual = 1.85559e-05, No Iterations 5
time step continuity errors : sum local = 5.61387e-06, global = 6.82687e-19, cumulative = -7.41751e-16
smoothSolver:  Solving for nuTilda, Initial residual = 0.00435613, Final residual = 2.10607e-05, No Iterations 8
bounding nuTilda, min: -6.06869e-05 max: 0.422858 average: 0.0765785
ExecutionTime = 3.59 s  ClockTime = 4 s

Time = 38

smoothSolver:  Solving for Ux, Initial residual = 0.00347727, Final residual = 1.37177e-05, No Iterations 8
smoothSolver:  Solving for Uy, Initial residual = 0.00185677, Final residual = 9.43174e-06, No Iterations 8
GAMG:  Solving for p, Initial residual = 0.00404072, Final residual = 3.0016e-05, No Iterations 4
time step continuity errors : sum local = 8.98494e-06, global = -3.04911e-16, cumulative = -1.04666e-15
smoothSolver:  Solving for nuTilda, Initial residual = 0.00419496, Final residual = 2.0275e-05, No Iterations 8
bounding nuTilda, min: -0.000125538 max: 0.42287 average: 0.0758331
ExecutionTime = 3.68 s  ClockTime = 4 s

Time = 39

smoothSolver:  Solving for Ux, Initial residual = 0.00332106, Final residual = 1.33213e-05, No Iterations 8
smoothSolver:  Solving for Uy, Initial residual = 0.00193308, Final residual = 9.95371e-06, No Iterations 8
GAMG:  Solving for p, Initial residual = 0.0038346, Final residual = 3.44159e-05, No Iterations 4
time step continuity errors : sum local = 1.03086e-05, global = 5.15077e-17, cumulative = -9.95154e-16
smoothSolver:  Solving for nuTilda, Initial residual = 0.00405005, Final residual = 1.95849e-05, No Iterations 8
bounding nuTilda, min: -8.04406e-05 max: 0.422883 average: 0.0751079
ExecutionTime = 3.76 s  ClockTime = 4 s

Time = 40

smoothSolver:  Solving for Ux, Initial residual = 0.00316717, Final residual = 1.28169e-05, No Iterations 8
smoothSolver:  Solving for Uy, Initial residual = 0.00171098, Final residual = 9.12286e-06, No Iterations 8
GAMG:  Solving for p, Initial residual = 0.00352404, Final residual = 2.65487e-05, No Iterations 4
time step continuity errors : sum local = 8.03496e-06, global = 9.59254e-17, cumulative = -8.99229e-16
smoothSolver:  Solving for nuTilda, Initial residual = 0.00390567, Final residual = 1.88826e-05, No Iterations 8
bounding nuTilda, min: -0.000150475 max: 0.422895 average: 0.0743947
ExecutionTime = 3.85 s  ClockTime = 4 s

forces wings output:
    sum of forces:
        pressure : (0.514546 7.35835 -3.34159e-19)
        viscous  : (0.434178 -0.0301324 1.12098e-20)
        porous   : (0 0 0)
    sum of moments:
        pressure : (-0.367917 0.0257273 0.254369)
        viscous  : (0.00150662 0.0217089 -2.85573e-05)
        porous   : (0 0 0)

Time = 41

smoothSolver:  Solving for Ux, Initial residual = 0.0030716, Final residual = 1.24478e-05, No Iterations 8
smoothSolver:  Solving for Uy, Initial residual = 0.00172455, Final residual = 9.20602e-06, No Iterations 8
GAMG:  Solving for p, Initial residual = 0.0031592, Final residual = 2.84044e-05, No Iterations 4
time step continuity errors : sum local = 8.52253e-06, global = 1.04057e-16, cumulative = -7.95172e-16
smoothSolver:  Solving for nuTilda, Initial residual = 0.00377462, Final residual = 1.82601e-05, No Iterations 8
bounding nuTilda, min: -9.51602e-05 max: 0.422904 average: 0.0736999
ExecutionTime = 3.94 s  ClockTime = 4 s

Time = 42

smoothSolver:  Solving for Ux, Initial residual = 0.00302832, Final residual = 1.23059e-05, No Iterations 8
smoothSolver:  Solving for Uy, Initial residual = 0.00161771, Final residual = 8.7806e-06, No Iterations 8
GAMG:  Solving for p, Initial residual = 0.00297897, Final residual = 2.4838e-05, No Iterations 4
time step continuity errors : sum local = 7.48892e-06, global = -9.49522e-17, cumulative = -8.90124e-16
smoothSolver:  Solving for nuTilda, Initial residual = 0.00364381, Final residual = 1.76295e-05, No Iterations 8
bounding nuTilda, min: -0.000171519 max: 0.422908 average: 0.0730166
ExecutionTime = 4.02 s  ClockTime = 5 s

Time = 43

smoothSolver:  Solving for Ux, Initial residual = 0.00297344, Final residual = 1.21822e-05, No Iterations 8
smoothSolver:  Solving for Uy, Initial residual = 0.00148275, Final residual = 8.20219e-06, No Iterations 8
GAMG:  Solving for p, Initial residual = 0.00277078, Final residual = 1.32625e-05, No Iterations 4
time step continuity errors : sum local = 3.97484e-06, global = 1.34545e-16, cumulative = -7.55579e-16
smoothSolver:  Solving for nuTilda, Initial residual = 0.00352586, Final residual = 1.70624e-05, No Iterations 8
bounding nuTilda, min: -0.000104991 max: 0.422909 average: 0.07235
ExecutionTime = 4.11 s  ClockTime = 5 s

Time = 44

smoothSolver:  Solving for Ux, Initial residual = 0.0028854, Final residual = 1.19583e-05, No Iterations 8
smoothSolver:  Solving for Uy, Initial residual = 0.00147013, Final residual = 8.20142e-06, No Iterations 8
GAMG:  Solving for p, Initial residual = 0.0025432, Final residual = 1.47458e-05, No Iterations 4
time step continuity errors : sum local = 4.45378e-06, global = 3.85115e-17, cumulative = -7.17067e-16
smoothSolver:  Solving for nuTilda, Initial residual = 0.00341127, Final residual = 1.65011e-05, No Iterations 8
bounding nuTilda, min: -0.000188084 max: 0.422907 average: 0.0716947
ExecutionTime = 4.19 s  ClockTime = 5 s

Time = 45

smoothSolver:  Solving for Ux, Initial residual = 0.00279449, Final residual = 1.1699e-05, No Iterations 8
smoothSolver:  Solving for Uy, Initial residual = 0.0014379, Final residual = 8.14266e-06, No Iterations 8
GAMG:  Solving for p, Initial residual = 0.00234862, Final residual = 1.58373e-05, No Iterations 4
time step continuity errors : sum local = 4.7403e-06, global = -7.83868e-17, cumulative = -7.95454e-16
smoothSolver:  Solving for nuTilda, Initial residual = 0.003305, Final residual = 1.59861e-05, No Iterations 8
bounding nuTilda, min: -0.000111293 max: 0.422904 average: 0.0710542
ExecutionTime = 4.28 s  ClockTime = 5 s

forces wings output:
    sum of forces:
        pressure : (0.489483 6.99994 -3.37435e-19)
        viscous  : (0.421333 -0.0292552 1.18031e-20)
        porous   : (0 0 0)
    sum of moments:
        pressure : (-0.349997 0.0244742 0.150062)
        viscous  : (0.00146276 0.0210666 -4.2469e-05)
        porous   : (0 0 0)

Time = 46

smoothSolver:  Solving for Ux, Initial residual = 0.00272169, Final residual = 1.14641e-05, No Iterations 8
smoothSolver:  Solving for Uy, Initial residual = 0.00141287, Final residual = 8.10371e-06, No Iterations 8
GAMG:  Solving for p, Initial residual = 0.00220584, Final residual = 1.12309e-05, No Iterations 4
time step continuity errors : sum local = 3.36495e-06, global = 1.05469e-16, cumulative = -6.89985e-16
smoothSolver:  Solving for nuTilda, Initial residual = 0.00320197, Final residual = 1.54805e-05, No Iterations 8
bounding nuTilda, min: -0.000201105 max: 0.4229 average: 0.0704248
ExecutionTime = 4.36 s  ClockTime = 5 s

Time = 47

smoothSolver:  Solving for Ux, Initial residual = 0.00267364, Final residual = 1.13044e-05, No Iterations 8
smoothSolver:  Solving for Uy, Initial residual = 0.00140082, Final residual = 8.13393e-06, No Iterations 8
GAMG:  Solving for p, Initial residual = 0.00205801, Final residual = 1.33622e-05, No Iterations 4
time step continuity errors : sum local = 4.03839e-06, global = -2.6212e-16, cumulative = -9.52104e-16
smoothSolver:  Solving for nuTilda, Initial residual = 0.00310531, Final residual = 1.50071e-05, No Iterations 8
bounding nuTilda, min: -0.000114067 max: 0.422896 average: 0.0698088
ExecutionTime = 4.45 s  ClockTime = 5 s

Time = 48

smoothSolver:  Solving for Ux, Initial residual = 0.00263203, Final residual = 1.11724e-05, No Iterations 8
smoothSolver:  Solving for Uy, Initial residual = 0.00134549, Final residual = 7.9264e-06, No Iterations 8
GAMG:  Solving for p, Initial residual = 0.00190772, Final residual = 1.21847e-05, No Iterations 4
time step continuity errors : sum local = 3.65315e-06, global = -1.65005e-16, cumulative = -1.11711e-15
smoothSolver:  Solving for nuTilda, Initial residual = 0.00301205, Final residual = 1.45463e-05, No Iterations 8
bounding nuTilda, min: -0.000211414 max: 0.422894 average: 0.0692037
ExecutionTime = 4.54 s  ClockTime = 5 s

Time = 49

smoothSolver:  Solving for Ux, Initial residual = 0.00258771, Final residual = 1.10407e-05, No Iterations 8
smoothSolver:  Solving for Uy, Initial residual = 0.0013156, Final residual = 7.78911e-06, No Iterations 8
GAMG:  Solving for p, Initial residual = 0.00179497, Final residual = 7.29614e-06, No Iterations 4
time step continuity errors : sum local = 2.20961e-06, global = -2.44388e-17, cumulative = -1.14155e-15
smoothSolver:  Solving for nuTilda, Initial residual = 0.00292359, Final residual = 1.41082e-05, No Iterations 8
bounding nuTilda, min: -0.000114056 max: 0.422892 average: 0.0686107
ExecutionTime = 4.62 s  ClockTime = 5 s

Time = 50

smoothSolver:  Solving for Ux, Initial residual = 0.00253343, Final residual = 1.08722e-05, No Iterations 8
smoothSolver:  Solving for Uy, Initial residual = 0.00129756, Final residual = 7.72159e-06, No Iterations 8
GAMG:  Solving for p, Initial residual = 0.00170037, Final residual = 7.53239e-06, No Iterations 4
time step continuity errors : sum local = 2.27104e-06, global = -2.16585e-16, cumulative = -1.35813e-15
smoothSolver:  Solving for nuTilda, Initial residual = 0.00283866, Final residual = 1.36846e-05, No Iterations 8
bounding nuTilda, min: -0.000218884 max: 0.422891 average: 0.0680284
ExecutionTime = 4.7 s  ClockTime = 5 s

forces wings output:
    sum of forces:
        pressure : (0.503944 7.20674 -3.39334e-19)
        viscous  : (0.409721 -0.0284478 1.21771e-20)
        porous   : (0 0 0)
    sum of moments:
        pressure : (-0.360337 0.0251972 0.177317)
        viscous  : (0.00142239 0.020486 -5.18597e-05)
        porous   : (0 0 0)

Time = 51

smoothSolver:  Solving for Ux, Initial residual = 0.00247682, Final residual = 1.06765e-05, No Iterations 8
smoothSolver:  Solving for Uy, Initial residual = 0.00128837, Final residual = 7.71171e-06, No Iterations 8
GAMG:  Solving for p, Initial residual = 0.00159765, Final residual = 6.82894e-06, No Iterations 4
time step continuity errors : sum local = 2.04405e-06, global = 7.34933e-17, cumulative = -1.28464e-15
smoothSolver:  Solving for nuTilda, Initial residual = 0.0027576, Final residual = 1.32807e-05, No Iterations 8
bounding nuTilda, min: -0.000111894 max: 0.42289 average: 0.0674571
ExecutionTime = 4.79 s  ClockTime = 5 s

Time = 52

smoothSolver:  Solving for Ux, Initial residual = 0.00242801, Final residual = 1.0492e-05, No Iterations 8
smoothSolver:  Solving for Uy, Initial residual = 0.0012884, Final residual = 7.73365e-06, No Iterations 8
GAMG:  Solving for p, Initial residual = 0.00150738, Final residual = 7.11864e-06, No Iterations 4
time step continuity errors : sum local = 2.14946e-06, global = -9.80717e-17, cumulative = -1.38271e-15
smoothSolver:  Solving for nuTilda, Initial residual = 0.00267983, Final residual = 1.28915e-05, No Iterations 8
bounding nuTilda, min: -0.000224178 max: 0.42289 average: 0.0668961
ExecutionTime = 4.88 s  ClockTime = 5 s

Time = 53

smoothSolver:  Solving for Ux, Initial residual = 0.0023898, Final residual = 1.03389e-05, No Iterations 8
smoothSolver:  Solving for Uy, Initial residual = 0.00127445, Final residual = 7.68808e-06, No Iterations 8
GAMG:  Solving for p, Initial residual = 0.00142112, Final residual = 9.26703e-06, No Iterations 4
time step continuity errors : sum local = 2.76899e-06, global = 6.52791e-18, cumulative = -1.37618e-15
smoothSolver:  Solving for nuTilda, Initial residual = 0.0026056, Final residual = 1.25179e-05, No Iterations 8
bounding nuTilda, min: -0.000107817 max: 0.422889 average: 0.0663454
ExecutionTime = 4.96 s  ClockTime = 5 s

Time = 54

smoothSolver:  Solving for Ux, Initial residual = 0.00235758, Final residual = 1.0211e-05, No Iterations 8
smoothSolver:  Solving for Uy, Initial residual = 0.00125762, Final residual = 7.61284e-06, No Iterations 8
GAMG:  Solving for p, Initial residual = 0.00134375, Final residual = 8.23619e-06, No Iterations 4
time step continuity errors : sum local = 2.46288e-06, global = -1.7461e-17, cumulative = -1.39364e-15
smoothSolver:  Solving for nuTilda, Initial residual = 0.00253454, Final residual = 1.21592e-05, No Iterations 8
bounding nuTilda, min: -0.000227828 max: 0.422889 average: 0.0658044
ExecutionTime = 5.05 s  ClockTime = 6 s

Time = 55

smoothSolver:  Solving for Ux, Initial residual = 0.00232504, Final residual = 1.00849e-05, No Iterations 8
smoothSolver:  Solving for Uy, Initial residual = 0.0012422, Final residual = 7.54236e-06, No Iterations 8
GAMG:  Solving for p, Initial residual = 0.00129019, Final residual = 7.05966e-06, No Iterations 4
time step continuity errors : sum local = 2.12635e-06, global = -1.01142e-16, cumulative = -1.49479e-15
smoothSolver:  Solving for nuTilda, Initial residual = 0.0024661, Final residual = 1.1815e-05, No Iterations 8
bounding nuTilda, min: -0.000102164 max: 0.422889 average: 0.065273
ExecutionTime = 5.14 s  ClockTime = 6 s

forces wings output:
    sum of forces:
        pressure : (0.521038 7.4512 -3.39614e-19)
        viscous  : (0.398301 -0.0276323 1.25246e-20)
        porous   : (0 0 0)
    sum of moments:
        pressure : (-0.37256 0.0260519 0.203954)
        viscous  : (0.00138161 0.019915 -5.79872e-05)
        porous   : (0 0 0)

Time = 56

smoothSolver:  Solving for Ux, Initial residual = 0.00228973, Final residual = 9.94718e-06, No Iterations 8
smoothSolver:  Solving for Uy, Initial residual = 0.00123205, Final residual = 7.49582e-06, No Iterations 8
GAMG:  Solving for p, Initial residual = 0.00123952, Final residual = 6.60291e-06, No Iterations 4
time step continuity errors : sum local = 1.97741e-06, global = -1.54301e-16, cumulative = -1.64909e-15
smoothSolver:  Solving for nuTilda, Initial residual = 0.00240058, Final residual = 1.14843e-05, No Iterations 8
bounding nuTilda, min: -0.000229896 max: 0.422889 average: 0.0647509
ExecutionTime = 5.22 s  ClockTime = 6 s

Time = 57

smoothSolver:  Solving for Ux, Initial residual = 0.00225356, Final residual = 9.80399e-06, No Iterations 8
smoothSolver:  Solving for Uy, Initial residual = 0.00122831, Final residual = 7.47907e-06, No Iterations 8
GAMG:  Solving for p, Initial residual = 0.00118225, Final residual = 6.10822e-06, No Iterations 4
time step continuity errors : sum local = 1.82928e-06, global = 6.48169e-17, cumulative = -1.58427e-15
smoothSolver:  Solving for nuTilda, Initial residual = 0.00233741, Final residual = 1.11667e-05, No Iterations 8
bounding nuTilda, min: -9.53923e-05 max: 0.42289 average: 0.0642378
ExecutionTime = 5.31 s  ClockTime = 6 s

Time = 58

smoothSolver:  Solving for Ux, Initial residual = 0.00221928, Final residual = 9.66301e-06, No Iterations 8
smoothSolver:  Solving for Uy, Initial residual = 0.00122201, Final residual = 7.44959e-06, No Iterations 8
GAMG:  Solving for p, Initial residual = 0.00113394, Final residual = 7.24681e-06, No Iterations 4
time step continuity errors : sum local = 2.16428e-06, global = 1.39545e-16, cumulative = -1.44472e-15
smoothSolver:  Solving for nuTilda, Initial residual = 0.00227653, Final residual = 1.08612e-05, No Iterations 8
bounding nuTilda, min: -0.000230698 max: 0.42289 average: 0.0637334
ExecutionTime = 5.39 s  ClockTime = 6 s

Time = 59

smoothSolver:  Solving for Ux, Initial residual = 0.00218841, Final residual = 9.53122e-06, No Iterations 8
smoothSolver:  Solving for Uy, Initial residual = 0.00121241, Final residual = 7.40198e-06, No Iterations 8
GAMG:  Solving for p, Initial residual = 0.00108844, Final residual = 6.83597e-06, No Iterations 4
time step continuity errors : sum local = 2.06041e-06, global = 2.15222e-16, cumulative = -1.2295e-15
smoothSolver:  Solving for nuTilda, Initial residual = 0.00221809, Final residual = 1.05681e-05, No Iterations 8
bounding nuTilda, min: -8.76367e-05 max: 0.42289 average: 0.0632376
ExecutionTime = 5.48 s  ClockTime = 6 s

Time = 60

smoothSolver:  Solving for Ux, Initial residual = 0.00215925, Final residual = 9.40531e-06, No Iterations 8
smoothSolver:  Solving for Uy, Initial residual = 0.00120258, Final residual = 7.34574e-06, No Iterations 8
GAMG:  Solving for p, Initial residual = 0.00104974, Final residual = 7.68922e-06, No Iterations 4
time step continuity errors : sum local = 2.29722e-06, global = 3.04502e-16, cumulative = -9.25e-16
smoothSolver:  Solving for nuTilda, Initial residual = 0.00216168, Final residual = 1.02864e-05, No Iterations 8
bounding nuTilda, min: -0.00023057 max: 0.42289 average: 0.06275
ExecutionTime = 5.56 s  ClockTime = 6 s

forces wings output:
    sum of forces:
        pressure : (0.53469 7.64643 -3.38979e-19)
        viscous  : (0.387365 -0.0268501 1.27949e-20)
        porous   : (0 0 0)
    sum of moments:
        pressure : (-0.382321 0.0267345 0.217728)
        viscous  : (0.00134251 0.0193682 -6.24887e-05)
        porous   : (0 0 0)

Time = 61

smoothSolver:  Solving for Ux, Initial residual = 0.00213148, Final residual = 9.28683e-06, No Iterations 8
smoothSolver:  Solving for Uy, Initial residual = 0.00119314, Final residual = 7.29139e-06, No Iterations 8
GAMG:  Solving for p, Initial residual = 0.0010145, Final residual = 6.67369e-06, No Iterations 4
time step continuity errors : sum local = 2.00885e-06, global = -1.2846e-16, cumulative = -1.05346e-15
smoothSolver:  Solving for nuTilda, Initial residual = 0.0021074, Final residual = 1.00157e-05, No Iterations 8
bounding nuTilda, min: -7.91032e-05 max: 0.422889 average: 0.0622705
ExecutionTime = 5.65 s  ClockTime = 6 s

Time = 62

smoothSolver:  Solving for Ux, Initial residual = 0.00210326, Final residual = 9.16561e-06, No Iterations 8
smoothSolver:  Solving for Uy, Initial residual = 0.0011856, Final residual = 7.24508e-06, No Iterations 8
GAMG:  Solving for p, Initial residual = 0.000980379, Final residual = 6.97968e-06, No Iterations 4
time step continuity errors : sum local = 2.08535e-06, global = 6.09657e-17, cumulative = -9.92494e-16
smoothSolver:  Solving for nuTilda, Initial residual = 0.00205526, Final residual = 9.75501e-06, No Iterations 8
bounding nuTilda, min: -0.000229607 max: 0.422889 average: 0.0617989
ExecutionTime = 5.73 s  ClockTime = 6 s

Time = 63

smoothSolver:  Solving for Ux, Initial residual = 0.00207616, Final residual = 9.04853e-06, No Iterations 8
smoothSolver:  Solving for Uy, Initial residual = 0.00117853, Final residual = 7.20129e-06, No Iterations 8
GAMG:  Solving for p, Initial residual = 0.000949313, Final residual = 6.82639e-06, No Iterations 4
time step continuity errors : sum local = 2.05566e-06, global = 5.50827e-17, cumulative = -9.37411e-16
smoothSolver:  Solving for nuTilda, Initial residual = 0.00200486, Final residual = 9.50334e-06, No Iterations 8
bounding nuTilda, min: -6.99879e-05 max: 0.422889 average: 0.0613349
ExecutionTime = 5.82 s  ClockTime = 6 s

Time = 64

smoothSolver:  Solving for Ux, Initial residual = 0.00204981, Final residual = 8.93066e-06, No Iterations 8
smoothSolver:  Solving for Uy, Initial residual = 0.00117153, Final residual = 7.15366e-06, No Iterations 8
GAMG:  Solving for p, Initial residual = 0.000922219, Final residual = 7.81945e-06, No Iterations 4
time step continuity errors : sum local = 2.35427e-06, global = 1.75029e-16, cumulative = -7.62383e-16
smoothSolver:  Solving for nuTilda, Initial residual = 0.00195593, Final residual = 9.2603e-06, No Iterations 8
bounding nuTilda, min: -0.000227998 max: 0.422889 average: 0.0608784
ExecutionTime = 5.9 s  ClockTime = 6 s

Time = 65

smoothSolver:  Solving for Ux, Initial residual = 0.00202529, Final residual = 8.81799e-06, No Iterations 8
smoothSolver:  Solving for Uy, Initial residual = 0.00116345, Final residual = 7.10071e-06, No Iterations 8
GAMG:  Solving for p, Initial residual = 0.000895534, Final residual = 8.68354e-06, No Iterations 4
time step continuity errors : sum local = 2.61457e-06, global = 3.83472e-17, cumulative = -7.24035e-16
smoothSolver:  Solving for nuTilda, Initial residual = 0.00190863, Final residual = 9.0256e-06, No Iterations 8
bounding nuTilda, min: -6.04451e-05 max: 0.422888 average: 0.0604292
ExecutionTime = 5.99 s  ClockTime = 6 s

forces wings output:
    sum of forces:
        pressure : (0.54723 7.82576 -3.37792e-19)
        viscous  : (0.37683 -0.0260914 1.30183e-20)
        porous   : (0 0 0)
    sum of moments:
        pressure : (-0.391288 0.0273615 0.228819)
        viscous  : (0.00130457 0.0188415 -6.77986e-05)
        porous   : (0 0 0)

Time = 66

smoothSolver:  Solving for Ux, Initial residual = 0.00200265, Final residual = 8.71241e-06, No Iterations 8
smoothSolver:  Solving for Uy, Initial residual = 0.00115525, Final residual = 7.04613e-06, No Iterations 8
GAMG:  Solving for p, Initial residual = 0.000874141, Final residual = 5.75634e-06, No Iterations 5
time step continuity errors : sum local = 1.73489e-06, global = -1.5484e-17, cumulative = -7.3952e-16
smoothSolver:  Solving for nuTilda, Initial residual = 0.00186298, Final residual = 8.79902e-06, No Iterations 8
bounding nuTilda, min: -0.000225825 max: 0.422888 average: 0.0599872
ExecutionTime = 6.08 s  ClockTime = 7 s

Time = 67

smoothSolver:  Solving for Ux, Initial residual = 0.00198124, Final residual = 8.61294e-06, No Iterations 8
smoothSolver:  Solving for Uy, Initial residual = 0.00114751, Final residual = 6.99461e-06, No Iterations 8
GAMG:  Solving for p, Initial residual = 0.000852897, Final residual = 8.01226e-06, No Iterations 4
time step continuity errors : sum local = 2.41196e-06, global = 1.39581e-16, cumulative = -5.99938e-16
smoothSolver:  Solving for nuTilda, Initial residual = 0.00181896, Final residual = 8.58024e-06, No Iterations 8
bounding nuTilda, min: -5.05973e-05 max: 0.422888 average: 0.0595521
ExecutionTime = 6.16 s  ClockTime = 7 s

Time = 68

smoothSolver:  Solving for Ux, Initial residual = 0.0019591, Final residual = 8.50914e-06, No Iterations 8
smoothSolver:  Solving for Uy, Initial residual = 0.00114061, Final residual = 6.94382e-06, No Iterations 8
GAMG:  Solving for p, Initial residual = 0.000832701, Final residual = 8.11876e-06, No Iterations 4
time step continuity errors : sum local = 2.44429e-06, global = 1.51796e-16, cumulative = -4.48142e-16
smoothSolver:  Solving for nuTilda, Initial residual = 0.00177644, Final residual = 8.3688e-06, No Iterations 8
bounding nuTilda, min: -0.000223307 max: 0.422888 average: 0.0591237
ExecutionTime = 6.25 s  ClockTime = 7 s

Time = 69

smoothSolver:  Solving for Ux, Initial residual = 0.00193673, Final residual = 8.40315e-06, No Iterations 8
smoothSolver:  Solving for Uy, Initial residual = 0.00113332, Final residual = 6.89084e-06, No Iterations 8
GAMG:  Solving for p, Initial residual = 0.000811474, Final residual = 5.05552e-06, No Iterations 5
time step continuity errors : sum local = 1.52116e-06, global = 5.28282e-17, cumulative = -3.95314e-16
smoothSolver:  Solving for nuTilda, Initial residual = 0.00173528, Final residual = 8.16402e-06, No Iterations 8
bounding nuTilda, min: -4.03541e-05 max: 0.422888 average: 0.058702
ExecutionTime = 6.34 s  ClockTime = 7 s

Time = 70

smoothSolver:  Solving for Ux, Initial residual = 0.00191569, Final residual = 8.3025e-06, No Iterations 8
smoothSolver:  Solving for Uy, Initial residual = 0.00112532, Final residual = 6.83368e-06, No Iterations 8
GAMG:  Solving for p, Initial residual = 0.000792803, Final residual = 4.83746e-06, No Iterations 5
time step continuity errors : sum local = 1.45548e-06, global = -3.92617e-17, cumulative = -4.34575e-16
smoothSolver:  Solving for nuTilda, Initial residual = 0.00169533, Final residual = 7.96531e-06, No Iterations 8
bounding nuTilda, min: -0.000220483 max: 0.422888 average: 0.0582867
ExecutionTime = 6.42 s  ClockTime = 7 s

forces wings output:
    sum of forces:
        pressure : (0.561966 8.0365 -3.33914e-19)
        viscous  : (0.366671 -0.0253621 1.3122e-20)
        porous   : (0 0 0)
    sum of moments:
        pressure : (-0.401825 0.0280983 0.245071)
        viscous  : (0.00126811 0.0183336 -7.23723e-05)
        porous   : (0 0 0)

Time = 71

smoothSolver:  Solving for Ux, Initial residual = 0.00189546, Final residual = 8.20391e-06, No Iterations 8
smoothSolver:  Solving for Uy, Initial residual = 0.00111684, Final residual = 6.77383e-06, No Iterations 8
GAMG:  Solving for p, Initial residual = 0.000773919, Final residual = 4.62361e-06, No Iterations 5
time step continuity errors : sum local = 1.39132e-06, global = 2.32851e-16, cumulative = -2.01724e-16
smoothSolver:  Solving for nuTilda, Initial residual = 0.00165654, Final residual = 7.77229e-06, No Iterations 8
bounding nuTilda, min: -2.98422e-05 max: 0.422888 average: 0.0578778
ExecutionTime = 6.51 s  ClockTime = 7 s

Time = 72

smoothSolver:  Solving for Ux, Initial residual = 0.00187608, Final residual = 8.10812e-06, No Iterations 8
smoothSolver:  Solving for Uy, Initial residual = 0.00110863, Final residual = 6.71329e-06, No Iterations 8
GAMG:  Solving for p, Initial residual = 0.000758617, Final residual = 4.63909e-06, No Iterations 5
time step continuity errors : sum local = 1.39563e-06, global = 2.8983e-16, cumulative = 8.81059e-17
smoothSolver:  Solving for nuTilda, Initial residual = 0.00161897, Final residual = 7.58482e-06, No Iterations 8
bounding nuTilda, min: -0.000217446 max: 0.422889 average: 0.0574751
ExecutionTime = 6.6 s  ClockTime = 7 s

Time = 73

smoothSolver:  Solving for Ux, Initial residual = 0.00185707, Final residual = 8.01396e-06, No Iterations 8
smoothSolver:  Solving for Uy, Initial residual = 0.00110067, Final residual = 6.65396e-06, No Iterations 8
GAMG:  Solving for p, Initial residual = 0.000743, Final residual = 4.7751e-06, No Iterations 5
time step continuity errors : sum local = 1.43708e-06, global = 1.4463e-16, cumulative = 2.32736e-16
smoothSolver:  Solving for nuTilda, Initial residual = 0.0015826, Final residual = 7.40291e-06, No Iterations 8
bounding nuTilda, min: -1.91025e-05 max: 0.422889 average: 0.0570784
ExecutionTime = 6.69 s  ClockTime = 7 s

Time = 74

smoothSolver:  Solving for Ux, Initial residual = 0.00183855, Final residual = 7.92213e-06, No Iterations 8
smoothSolver:  Solving for Uy, Initial residual = 0.00109297, Final residual = 6.59451e-06, No Iterations 8
GAMG:  Solving for p, Initial residual = 0.000730228, Final residual = 4.90045e-06, No Iterations 5
time step continuity errors : sum local = 1.47467e-06, global = -1.07723e-17, cumulative = 2.21963e-16
smoothSolver:  Solving for nuTilda, Initial residual = 0.00154734, Final residual = 7.22637e-06, No Iterations 8
bounding nuTilda, min: -0.000214266 max: 0.422889 average: 0.0566877
ExecutionTime = 6.77 s  ClockTime = 7 s

Time = 75

smoothSolver:  Solving for Ux, Initial residual = 0.00182037, Final residual = 7.83157e-06, No Iterations 8
smoothSolver:  Solving for Uy, Initial residual = 0.00108483, Final residual = 6.53366e-06, No Iterations 8
GAMG:  Solving for p, Initial residual = 0.000716125, Final residual = 4.85594e-06, No Iterations 5
time step continuity errors : sum local = 1.46149e-06, global = 2.36727e-17, cumulative = 2.45636e-16
smoothSolver:  Solving for nuTilda, Initial residual = 0.00151311, Final residual = 7.05506e-06, No Iterations 8
bounding nuTilda, min: -8.19139e-06 max: 0.42289 average: 0.0563027
ExecutionTime = 6.86 s  ClockTime = 7 s

forces wings output:
    sum of forces:
        pressure : (0.577144 8.25355 -3.30443e-19)
        viscous  : (0.356846 -0.0246542 1.32187e-20)
        porous   : (0 0 0)
    sum of moments:
        pressure : (-0.412677 0.0288572 0.258485)
        viscous  : (0.00123271 0.0178423 -7.75127e-05)
        porous   : (0 0 0)

Time = 76

smoothSolver:  Solving for Ux, Initial residual = 0.00180276, Final residual = 7.74323e-06, No Iterations 8
smoothSolver:  Solving for Uy, Initial residual = 0.00107632, Final residual = 6.47005e-06, No Iterations 8
GAMG:  Solving for p, Initial residual = 0.000704893, Final residual = 4.79528e-06, No Iterations 5
time step continuity errors : sum local = 1.44286e-06, global = -2.65338e-16, cumulative = -1.97022e-17
smoothSolver:  Solving for nuTilda, Initial residual = 0.00147988, Final residual = 6.88893e-06, No Iterations 8
bounding nuTilda, min: -0.000210987 max: 0.422891 average: 0.0559235
ExecutionTime = 6.95 s  ClockTime = 7 s

Time = 77

smoothSolver:  Solving for Ux, Initial residual = 0.0017855, Final residual = 7.65628e-06, No Iterations 8
smoothSolver:  Solving for Uy, Initial residual = 0.0010674, Final residual = 6.40468e-06, No Iterations 8
GAMG:  Solving for p, Initial residual = 0.000691829, Final residual = 4.74767e-06, No Iterations 5
time step continuity errors : sum local = 1.4288e-06, global = -6.79722e-17, cumulative = -8.76744e-17
smoothSolver:  Solving for nuTilda, Initial residual = 0.00144757, Final residual = 6.72782e-06, No Iterations 8
ExecutionTime = 7.04 s  ClockTime = 8 s

Time = 78

smoothSolver:  Solving for Ux, Initial residual = 0.0017688, Final residual = 7.57167e-06, No Iterations 8
smoothSolver:  Solving for Uy, Initial residual = 0.00105862, Final residual = 6.33792e-06, No Iterations 8
GAMG:  Solving for p, Initial residual = 0.000681761, Final residual = 4.74235e-06, No Iterations 5
time step continuity errors : sum local = 1.42801e-06, global = 3.82717e-17, cumulative = -4.94027e-17
smoothSolver:  Solving for nuTilda, Initial residual = 0.00141618, Final residual = 6.57148e-06, No Iterations 8
bounding nuTilda, min: -0.00020769 max: 0.422892 average: 0.0551815
ExecutionTime = 7.13 s  ClockTime = 8 s

Time = 79

smoothSolver:  Solving for Ux, Initial residual = 0.00175249, Final residual = 7.48919e-06, No Iterations 8
smoothSolver:  Solving for Uy, Initial residual = 0.00104945, Final residual = 6.27017e-06, No Iterations 8
GAMG:  Solving for p, Initial residual = 0.000672346, Final residual = 4.83014e-06, No Iterations 5
time step continuity errors : sum local = 1.45417e-06, global = -2.20409e-16, cumulative = -2.69812e-16
smoothSolver:  Solving for nuTilda, Initial residual = 0.00138561, Final residual = 6.41947e-06, No Iterations 8
ExecutionTime = 7.21 s  ClockTime = 8 s

Time = 80

smoothSolver:  Solving for Ux, Initial residual = 0.00173651, Final residual = 7.4073e-06, No Iterations 8
smoothSolver:  Solving for Uy, Initial residual = 0.00104063, Final residual = 6.20274e-06, No Iterations 8
GAMG:  Solving for p, Initial residual = 0.000661711, Final residual = 4.97499e-06, No Iterations 5
time step continuity errors : sum local = 1.49625e-06, global = -4.38195e-17, cumulative = -3.13631e-16
smoothSolver:  Solving for nuTilda, Initial residual = 0.00135579, Final residual = 6.27153e-06, No Iterations 8
bounding nuTilda, min: -0.000204327 max: 0.422893 average: 0.0544609
ExecutionTime = 7.3 s  ClockTime = 8 s

forces wings output:
    sum of forces:
        pressure : (0.592583 8.47435 -3.27281e-19)
        viscous  : (0.347321 -0.0239713 1.33078e-20)
        porous   : (0 0 0)
    sum of moments:
        pressure : (-0.423717 0.0296292 0.270056)
        viscous  : (0.00119857 0.017366 -8.17873e-05)
        porous   : (0 0 0)

Time = 81

smoothSolver:  Solving for Ux, Initial residual = 0.00172053, Final residual = 7.32513e-06, No Iterations 8
smoothSolver:  Solving for Uy, Initial residual = 0.00103202, Final residual = 6.13641e-06, No Iterations 8
GAMG:  Solving for p, Initial residual = 0.000651103, Final residual = 5.00714e-06, No Iterations 5
time step continuity errors : sum local = 1.5072e-06, global = -7.27863e-17, cumulative = -3.86418e-16
smoothSolver:  Solving for nuTilda, Initial residual = 0.0013268, Final residual = 6.12762e-06, No Iterations 8
bounding nuTilda, min: -0.000122909 max: 0.422894 average: 0.0541083
ExecutionTime = 7.39 s  ClockTime = 8 s

Time = 82

smoothSolver:  Solving for Ux, Initial residual = 0.00170522, Final residual = 7.2461e-06, No Iterations 8
smoothSolver:  Solving for Uy, Initial residual = 0.00102305, Final residual = 6.068e-06, No Iterations 8
GAMG:  Solving for p, Initial residual = 0.000639904, Final residual = 4.95736e-06, No Iterations 5
time step continuity errors : sum local = 1.49316e-06, global = 3.08639e-17, cumulative = -3.55554e-16
smoothSolver:  Solving for nuTilda, Initial residual = 0.00129858, Final residual = 5.98754e-06, No Iterations 8
bounding nuTilda, min: -0.00020099 max: 0.422894 average: 0.0537608
ExecutionTime = 7.48 s  ClockTime = 8 s

Time = 83

smoothSolver:  Solving for Ux, Initial residual = 0.00169035, Final residual = 7.16939e-06, No Iterations 8
smoothSolver:  Solving for Uy, Initial residual = 0.00101357, Final residual = 5.99743e-06, No Iterations 8
GAMG:  Solving for p, Initial residual = 0.000634527, Final residual = 4.35155e-06, No Iterations 5
time step continuity errors : sum local = 1.31001e-06, global = -6.27358e-17, cumulative = -4.18289e-16
smoothSolver:  Solving for nuTilda, Initial residual = 0.00127112, Final residual = 5.85127e-06, No Iterations 8
ExecutionTime = 7.57 s  ClockTime = 8 s

Time = 84

smoothSolver:  Solving for Ux, Initial residual = 0.00167572, Final residual = 7.09381e-06, No Iterations 8
smoothSolver:  Solving for Uy, Initial residual = 0.00100408, Final residual = 5.92663e-06, No Iterations 8
GAMG:  Solving for p, Initial residual = 0.000623022, Final residual = 5.13757e-06, No Iterations 5
time step continuity errors : sum local = 1.54814e-06, global = 1.57745e-17, cumulative = -4.02515e-16
smoothSolver:  Solving for nuTilda, Initial residual = 0.00124442, Final residual = 5.71874e-06, No Iterations 8
bounding nuTilda, min: -0.000197695 max: 0.422896 average: 0.0530805
ExecutionTime = 7.66 s  ClockTime = 8 s

Time = 85

smoothSolver:  Solving for Ux, Initial residual = 0.00166128, Final residual = 7.01793e-06, No Iterations 8
smoothSolver:  Solving for Uy, Initial residual = 0.000994417, Final residual = 5.85422e-06, No Iterations 8
GAMG:  Solving for p, Initial residual = 0.000610469, Final residual = 5.01339e-06, No Iterations 5
time step continuity errors : sum local = 1.51085e-06, global = 9.48576e-17, cumulative = -3.07657e-16
smoothSolver:  Solving for nuTilda, Initial residual = 0.00121844, Final residual = 5.58978e-06, No Iterations 8
ExecutionTime = 7.75 s  ClockTime = 8 s

forces wings output:
    sum of forces:
        pressure : (0.608652 8.70414 -3.24287e-19)
        viscous  : (0.338158 -0.0233151 1.33836e-20)
        porous   : (0 0 0)
    sum of moments:
        pressure : (-0.435207 0.0304326 0.280645)
        viscous  : (0.00116575 0.0169079 -8.57908e-05)
        porous   : (0 0 0)

Time = 86

smoothSolver:  Solving for Ux, Initial residual = 0.00164726, Final residual = 6.94405e-06, No Iterations 8
smoothSolver:  Solving for Uy, Initial residual = 0.000984592, Final residual = 5.78097e-06, No Iterations 8
GAMG:  Solving for p, Initial residual = 0.000609146, Final residual = 4.35699e-06, No Iterations 5
time step continuity errors : sum local = 1.31162e-06, global = 3.75151e-17, cumulative = -2.70142e-16
smoothSolver:  Solving for nuTilda, Initial residual = 0.00119314, Final residual = 5.46424e-06, No Iterations 8
bounding nuTilda, min: -0.000194504 max: 0.422898 average: 0.0524192
ExecutionTime = 7.84 s  ClockTime = 8 s

Time = 87

smoothSolver:  Solving for Ux, Initial residual = 0.00163344, Final residual = 6.87173e-06, No Iterations 8
smoothSolver:  Solving for Uy, Initial residual = 0.00097485, Final residual = 5.70883e-06, No Iterations 8
GAMG:  Solving for p, Initial residual = 0.000596624, Final residual = 5.2027e-06, No Iterations 5
time step continuity errors : sum local = 1.56821e-06, global = -1.52002e-16, cumulative = -4.22144e-16
smoothSolver:  Solving for nuTilda, Initial residual = 0.00116849, Final residual = 5.34202e-06, No Iterations 8
ExecutionTime = 7.93 s  ClockTime = 8 s

Time = 88

smoothSolver:  Solving for Ux, Initial residual = 0.00161983, Final residual = 6.79907e-06, No Iterations 8
smoothSolver:  Solving for Uy, Initial residual = 0.000965189, Final residual = 5.6357e-06, No Iterations 8
GAMG:  Solving for p, Initial residual = 0.000586671, Final residual = 5.05302e-06, No Iterations 5
time step continuity errors : sum local = 1.52386e-06, global = -1.86458e-17, cumulative = -4.4079e-16
smoothSolver:  Solving for nuTilda, Initial residual = 0.00114444, Final residual = 5.22295e-06, No Iterations 8
bounding nuTilda, min: -0.000191416 max: 0.4229 average: 0.0517762
ExecutionTime = 8.01 s  ClockTime = 9 s

Time = 89

smoothSolver:  Solving for Ux, Initial residual = 0.00160655, Final residual = 6.72875e-06, No Iterations 8
smoothSolver:  Solving for Uy, Initial residual = 0.000955002, Final residual = 5.56114e-06, No Iterations 8
GAMG:  Solving for p, Initial residual = 0.000577885, Final residual = 4.02974e-06, No Iterations 5
time step continuity errors : sum local = 1.21312e-06, global = -1.46054e-16, cumulative = -5.86844e-16
smoothSolver:  Solving for nuTilda, Initial residual = 0.00112099, Final residual = 5.10697e-06, No Iterations 8
ExecutionTime = 8.1 s  ClockTime = 9 s

Time = 90

smoothSolver:  Solving for Ux, Initial residual = 0.00159369, Final residual = 6.66112e-06, No Iterations 8
smoothSolver:  Solving for Uy, Initial residual = 0.000944781, Final residual = 5.48605e-06, No Iterations 8
GAMG:  Solving for p, Initial residual = 0.000580289, Final residual = 5.12619e-06, No Iterations 5
time step continuity errors : sum local = 1.54383e-06, global = 3.34648e-16, cumulative = -2.52196e-16
smoothSolver:  Solving for nuTilda, Initial residual = 0.00109812, Final residual = 4.99408e-06, No Iterations 8
bounding nuTilda, min: -0.000188328 max: 0.422902 average: 0.0511508
ExecutionTime = 8.2 s  ClockTime = 9 s

forces wings output:
    sum of forces:
        pressure : (0.624982 8.93768 -3.21978e-19)
        viscous  : (0.329755 -0.02272 1.34472e-20)
        porous   : (0 0 0)
    sum of moments:
        pressure : (-0.446884 0.0312491 0.290966)
        viscous  : (0.001136 0.0164877 -8.79524e-05)
        porous   : (0 0 0)

Time = 91

smoothSolver:  Solving for Ux, Initial residual = 0.00158021, Final residual = 6.58914e-06, No Iterations 8
smoothSolver:  Solving for Uy, Initial residual = 0.00093505, Final residual = 5.41234e-06, No Iterations 8
GAMG:  Solving for p, Initial residual = 0.000569056, Final residual = 5.01853e-06, No Iterations 5
time step continuity errors : sum local = 1.51265e-06, global = -1.85762e-16, cumulative = -4.37958e-16
smoothSolver:  Solving for nuTilda, Initial residual = 0.00107584, Final residual = 4.88425e-06, No Iterations 8
ExecutionTime = 8.29 s  ClockTime = 9 s

Time = 92

smoothSolver:  Solving for Ux, Initial residual = 0.00156736, Final residual = 6.52025e-06, No Iterations 8
smoothSolver:  Solving for Uy, Initial residual = 0.000924956, Final residual = 5.33704e-06, No Iterations 8
GAMG:  Solving for p, Initial residual = 0.000559544, Final residual = 3.9457e-06, No Iterations 5
time step continuity errors : sum local = 1.18816e-06, global = -4.35767e-17, cumulative = -4.81534e-16
smoothSolver:  Solving for nuTilda, Initial residual = 0.00105413, Final residual = 4.77737e-06, No Iterations 8
bounding nuTilda, min: -0.000185335 max: 0.422904 average: 0.0505424
ExecutionTime = 8.37 s  ClockTime = 9 s

Time = 93

smoothSolver:  Solving for Ux, Initial residual = 0.00155517, Final residual = 6.45615e-06, No Iterations 8
smoothSolver:  Solving for Uy, Initial residual = 0.000914153, Final residual = 5.26012e-06, No Iterations 8
GAMG:  Solving for p, Initial residual = 0.000548706, Final residual = 4.95507e-06, No Iterations 5
time step continuity errors : sum local = 1.49605e-06, global = -3.36812e-17, cumulative = -5.15215e-16
smoothSolver:  Solving for nuTilda, Initial residual = 0.00103299, Final residual = 4.67332e-06, No Iterations 8
ExecutionTime = 8.46 s  ClockTime = 9 s

Time = 94

smoothSolver:  Solving for Ux, Initial residual = 0.00154288, Final residual = 6.39021e-06, No Iterations 8
smoothSolver:  Solving for Uy, Initial residual = 0.000903482, Final residual = 5.18267e-06, No Iterations 8
GAMG:  Solving for p, Initial residual = 0.000542722, Final residual = 3.93702e-06, No Iterations 5
time step continuity errors : sum local = 1.18605e-06, global = -1.20154e-16, cumulative = -6.3537e-16
smoothSolver:  Solving for nuTilda, Initial residual = 0.00101234, Final residual = 4.57182e-06, No Iterations 8
bounding nuTilda, min: -0.000182459 max: 0.422906 average: 0.0499504
ExecutionTime = 8.55 s  ClockTime = 9 s

Time = 95

smoothSolver:  Solving for Ux, Initial residual = 0.00153071, Final residual = 6.3257e-06, No Iterations 8
smoothSolver:  Solving for Uy, Initial residual = 0.000892751, Final residual = 5.10562e-06, No Iterations 8
GAMG:  Solving for p, Initial residual = 0.000536542, Final residual = 4.92341e-06, No Iterations 5
time step continuity errors : sum local = 1.48529e-06, global = 3.37274e-17, cumulative = -6.01642e-16
smoothSolver:  Solving for nuTilda, Initial residual = 0.000992207, Final residual = 4.47283e-06, No Iterations 8
ExecutionTime = 8.64 s  ClockTime = 9 s

forces wings output:
    sum of forces:
        pressure : (0.641345 9.17168 -3.19955e-19)
        viscous  : (0.322203 -0.0221853 1.34861e-20)
        porous   : (0 0 0)
    sum of moments:
        pressure : (-0.458584 0.0320673 0.29899)
        viscous  : (0.00110927 0.0161102 -8.98985e-05)
        porous   : (0 0 0)

Time = 96

smoothSolver:  Solving for Ux, Initial residual = 0.00151834, Final residual = 6.25895e-06, No Iterations 8
smoothSolver:  Solving for Uy, Initial residual = 0.000882445, Final residual = 5.02952e-06, No Iterations 8
GAMG:  Solving for p, Initial residual = 0.000532449, Final residual = 4.0568e-06, No Iterations 5
time step continuity errors : sum local = 1.22259e-06, global = 6.63588e-17, cumulative = -5.35283e-16
smoothSolver:  Solving for nuTilda, Initial residual = 0.000972565, Final residual = 4.37635e-06, No Iterations 8
bounding nuTilda, min: -0.000179559 max: 0.422908 average: 0.0493742
ExecutionTime = 8.73 s  ClockTime = 9 s

Time = 97

smoothSolver:  Solving for Ux, Initial residual = 0.00150631, Final residual = 6.19521e-06, No Iterations 8
smoothSolver:  Solving for Uy, Initial residual = 0.000871895, Final residual = 4.95372e-06, No Iterations 8
GAMG:  Solving for p, Initial residual = 0.000525077, Final residual = 4.93488e-06, No Iterations 5
time step continuity errors : sum local = 1.49005e-06, global = 2.4697e-17, cumulative = -5.10586e-16
smoothSolver:  Solving for nuTilda, Initial residual = 0.000953434, Final residual = 4.28233e-06, No Iterations 8
ExecutionTime = 8.81 s  ClockTime = 9 s

Time = 98

smoothSolver:  Solving for Ux, Initial residual = 0.00149441, Final residual = 6.13121e-06, No Iterations 8
smoothSolver:  Solving for Uy, Initial residual = 0.000861303, Final residual = 4.87718e-06, No Iterations 8
GAMG:  Solving for p, Initial residual = 0.00051914, Final residual = 3.69381e-06, No Iterations 5
time step continuity errors : sum local = 1.11292e-06, global = 1.38775e-16, cumulative = -3.71811e-16
smoothSolver:  Solving for nuTilda, Initial residual = 0.000934775, Final residual = 4.19068e-06, No Iterations 8
bounding nuTilda, min: -0.000176694 max: 0.422911 average: 0.0488132
ExecutionTime = 8.9 s  ClockTime = 9 s

Time = 99

smoothSolver:  Solving for Ux, Initial residual = 0.0014829, Final residual = 6.07064e-06, No Iterations 8
smoothSolver:  Solving for Uy, Initial residual = 0.000850197, Final residual = 4.79983e-06, No Iterations 8
GAMG:  Solving for p, Initial residual = 0.00051092, Final residual = 4.6449e-06, No Iterations 5
time step continuity errors : sum local = 1.40367e-06, global = -1.84475e-17, cumulative = -3.90259e-16
smoothSolver:  Solving for nuTilda, Initial residual = 0.00091658, Final residual = 4.10133e-06, No Iterations 8
ExecutionTime = 8.99 s  ClockTime = 9 s

Time = 100

smoothSolver:  Solving for Ux, Initial residual = 0.00147126, Final residual = 6.00789e-06, No Iterations 8
smoothSolver:  Solving for Uy, Initial residual = 0.000839214, Final residual = 4.72195e-06, No Iterations 8
GAMG:  Solving for p, Initial residual = 0.000505555, Final residual = 3.34681e-06, No Iterations 5
time step continuity errors : sum local = 1.00508e-06, global = -2.29908e-16, cumulative = -6.20167e-16
smoothSolver:  Solving for nuTilda, Initial residual = 0.000898812, Final residual = 4.01419e-06, No Iterations 8
bounding nuTilda, min: -0.000173866 max: 0.422913 average: 0.048267
ExecutionTime = 9.08 s  ClockTime = 10 s

forces wings output:
    sum of forces:
        pressure : (0.65806 9.41072 -3.18704e-19)
        viscous  : (0.315175 -0.0216928 1.35404e-20)
        porous   : (0 0 0)
    sum of moments:
        pressure : (-0.470536 0.032903 0.307732)
        viscous  : (0.00108464 0.0157587 -9.05351e-05)
        porous   : (0 0 0)

Time = 101

smoothSolver:  Solving for Ux, Initial residual = 0.00145995, Final residual = 5.94907e-06, No Iterations 8
smoothSolver:  Solving for Uy, Initial residual = 0.000828134, Final residual = 4.64585e-06, No Iterations 8
GAMG:  Solving for p, Initial residual = 0.000498547, Final residual = 4.10277e-06, No Iterations 5
time step continuity errors : sum local = 1.23825e-06, global = 1.37474e-16, cumulative = -4.82693e-16
smoothSolver:  Solving for nuTilda, Initial residual = 0.000881468, Final residual = 3.9292e-06, No Iterations 8
ExecutionTime = 9.17 s  ClockTime = 10 s

Time = 102

smoothSolver:  Solving for Ux, Initial residual = 0.0014482, Final residual = 5.88451e-06, No Iterations 8
smoothSolver:  Solving for Uy, Initial residual = 0.000817347, Final residual = 4.56855e-06, No Iterations 8
GAMG:  Solving for p, Initial residual = 0.00049357, Final residual = 3.34827e-06, No Iterations 5
time step continuity errors : sum local = 1.00957e-06, global = -3.55479e-17, cumulative = -5.18241e-16
smoothSolver:  Solving for nuTilda, Initial residual = 0.000864514, Final residual = 3.84625e-06, No Iterations 8
bounding nuTilda, min: -0.000171063 max: 0.422916 average: 0.047735
ExecutionTime = 9.26 s  ClockTime = 10 s

Time = 103

smoothSolver:  Solving for Ux, Initial residual = 0.00143679, Final residual = 5.82293e-06, No Iterations 8
smoothSolver:  Solving for Uy, Initial residual = 0.000806248, Final residual = 4.49175e-06, No Iterations 8
GAMG:  Solving for p, Initial residual = 0.000486696, Final residual = 4.37566e-06, No Iterations 5
time step continuity errors : sum local = 1.32341e-06, global = -5.03346e-17, cumulative = -5.68575e-16
smoothSolver:  Solving for nuTilda, Initial residual = 0.000847965, Final residual = 3.76531e-06, No Iterations 8
ExecutionTime = 9.35 s  ClockTime = 10 s

Time = 104

smoothSolver:  Solving for Ux, Initial residual = 0.00142568, Final residual = 5.76226e-06, No Iterations 8
smoothSolver:  Solving for Uy, Initial residual = 0.00079515, Final residual = 4.41501e-06, No Iterations 8
GAMG:  Solving for p, Initial residual = 0.000483053, Final residual = 3.04121e-06, No Iterations 5
time step continuity errors : sum local = 9.20297e-07, global = -5.95784e-17, cumulative = -6.28154e-16
smoothSolver:  Solving for nuTilda, Initial residual = 0.000831794, Final residual = 3.68628e-06, No Iterations 8
bounding nuTilda, min: -0.000168166 max: 0.422918 average: 0.0472169
ExecutionTime = 9.43 s  ClockTime = 10 s

Time = 105

smoothSolver:  Solving for Ux, Initial residual = 0.00141492, Final residual = 5.70641e-06, No Iterations 8
smoothSolver:  Solving for Uy, Initial residual = 0.0007841, Final residual = 4.34043e-06, No Iterations 8
GAMG:  Solving for p, Initial residual = 0.000476436, Final residual = 4.22978e-06, No Iterations 5
time step continuity errors : sum local = 1.28011e-06, global = -1.62914e-17, cumulative = -6.44445e-16
smoothSolver:  Solving for nuTilda, Initial residual = 0.000816008, Final residual = 3.60911e-06, No Iterations 8
ExecutionTime = 9.52 s  ClockTime = 10 s

forces wings output:
    sum of forces:
        pressure : (0.67334 9.62922 -3.17738e-19)
        viscous  : (0.308455 -0.0212274 1.35962e-20)
        porous   : (0 0 0)
    sum of moments:
        pressure : (-0.481461 0.033667 0.312469)
        viscous  : (0.00106137 0.0154227 -8.98093e-05)
        porous   : (0 0 0)

Time = 106

smoothSolver:  Solving for Ux, Initial residual = 0.00140396, Final residual = 5.64542e-06, No Iterations 8
smoothSolver:  Solving for Uy, Initial residual = 0.000773231, Final residual = 4.26474e-06, No Iterations 8
GAMG:  Solving for p, Initial residual = 0.000472476, Final residual = 3.09559e-06, No Iterations 5
time step continuity errors : sum local = 9.32147e-07, global = -2.75348e-16, cumulative = -9.19793e-16
smoothSolver:  Solving for nuTilda, Initial residual = 0.000800557, Final residual = 3.53362e-06, No Iterations 8
bounding nuTilda, min: -0.00016522 max: 0.422921 average: 0.0467122
ExecutionTime = 9.62 s  ClockTime = 10 s

Time = 107

smoothSolver:  Solving for Ux, Initial residual = 0.00139302, Final residual = 5.58745e-06, No Iterations 8
smoothSolver:  Solving for Uy, Initial residual = 0.000762368, Final residual = 4.19116e-06, No Iterations 8
GAMG:  Solving for p, Initial residual = 0.000465883, Final residual = 2.66424e-06, No Iterations 5
time step continuity errors : sum local = 8.04237e-07, global = 5.70201e-17, cumulative = -8.62773e-16
smoothSolver:  Solving for nuTilda, Initial residual = 0.000785448, Final residual = 3.45981e-06, No Iterations 8
ExecutionTime = 9.71 s  ClockTime = 10 s

Time = 108

smoothSolver:  Solving for Ux, Initial residual = 0.00138226, Final residual = 5.52832e-06, No Iterations 8
smoothSolver:  Solving for Uy, Initial residual = 0.000751177, Final residual = 4.11598e-06, No Iterations 8
GAMG:  Solving for p, Initial residual = 0.000461396, Final residual = 3.57014e-06, No Iterations 5
time step continuity errors : sum local = 1.0794e-06, global = 2.0933e-16, cumulative = -6.53444e-16
smoothSolver:  Solving for nuTilda, Initial residual = 0.000770659, Final residual = 3.38762e-06, No Iterations 8
bounding nuTilda, min: -0.00016224 max: 0.422923 average: 0.0462205
ExecutionTime = 9.79 s  ClockTime = 10 s

Time = 109

smoothSolver:  Solving for Ux, Initial residual = 0.00137118, Final residual = 5.46614e-06, No Iterations 8
smoothSolver:  Solving for Uy, Initial residual = 0.000740326, Final residual = 4.04134e-06, No Iterations 8
GAMG:  Solving for p, Initial residual = 0.000454499, Final residual = 2.5479e-06, No Iterations 5
time step continuity errors : sum local = 7.71536e-07, global = -2.07415e-16, cumulative = -8.60858e-16
smoothSolver:  Solving for nuTilda, Initial residual = 0.000756204, Final residual = 3.31708e-06, No Iterations 8
ExecutionTime = 9.88 s  ClockTime = 10 s

Time = 110

smoothSolver:  Solving for Ux, Initial residual = 0.00136098, Final residual = 5.41047e-06, No Iterations 8
smoothSolver:  Solving for Uy, Initial residual = 0.000728681, Final residual = 3.96654e-06, No Iterations 8
GAMG:  Solving for p, Initial residual = 0.000450076, Final residual = 3.79676e-06, No Iterations 5
time step continuity errors : sum local = 1.15015e-06, global = 2.96459e-17, cumulative = -8.31212e-16
smoothSolver:  Solving for nuTilda, Initial residual = 0.000742054, Final residual = 3.24809e-06, No Iterations 8
bounding nuTilda, min: -0.00015918 max: 0.422926 average: 0.0457414
ExecutionTime = 9.97 s  ClockTime = 10 s

forces wings output:
    sum of forces:
        pressure : (0.687868 9.83699 -3.17618e-19)
        viscous  : (0.302159 -0.0207968 1.36757e-20)
        porous   : (0 0 0)
    sum of moments:
        pressure : (-0.491849 0.0343934 0.315651)
        viscous  : (0.00103984 0.015108 -8.78757e-05)
        porous   : (0 0 0)

Time = 111

smoothSolver:  Solving for Ux, Initial residual = 0.00135042, Final residual = 5.35252e-06, No Iterations 8
smoothSolver:  Solving for Uy, Initial residual = 0.000717727, Final residual = 3.89374e-06, No Iterations 8
GAMG:  Solving for p, Initial residual = 0.000446073, Final residual = 2.54535e-06, No Iterations 5
time step continuity errors : sum local = 7.69486e-07, global = 1.4334e-16, cumulative = -6.87873e-16
smoothSolver:  Solving for nuTilda, Initial residual = 0.000728225, Final residual = 3.18066e-06, No Iterations 8
ExecutionTime = 10.07 s  ClockTime = 11 s

Time = 112

smoothSolver:  Solving for Ux, Initial residual = 0.00134038, Final residual = 5.29858e-06, No Iterations 8
smoothSolver:  Solving for Uy, Initial residual = 0.000706472, Final residual = 3.82178e-06, No Iterations 8
GAMG:  Solving for p, Initial residual = 0.000442828, Final residual = 2.57675e-06, No Iterations 5
time step continuity errors : sum local = 7.80683e-07, global = -5.0996e-17, cumulative = -7.38869e-16
smoothSolver:  Solving for nuTilda, Initial residual = 0.000714698, Final residual = 3.11475e-06, No Iterations 8
bounding nuTilda, min: -0.000156033 max: 0.422928 average: 0.0452745
ExecutionTime = 10.16 s  ClockTime = 11 s

Time = 113

smoothSolver:  Solving for Ux, Initial residual = 0.00132986, Final residual = 5.2423e-06, No Iterations 8
smoothSolver:  Solving for Uy, Initial residual = 0.000695916, Final residual = 3.75217e-06, No Iterations 8
GAMG:  Solving for p, Initial residual = 0.000439252, Final residual = 3.4768e-06, No Iterations 5
time step continuity errors : sum local = 1.05315e-06, global = 2.44713e-16, cumulative = -4.94156e-16
smoothSolver:  Solving for nuTilda, Initial residual = 0.000701454, Final residual = 3.05041e-06, No Iterations 8
ExecutionTime = 10.24 s  ClockTime = 11 s

Time = 114

smoothSolver:  Solving for Ux, Initial residual = 0.0013193, Final residual = 5.18243e-06, No Iterations 8
smoothSolver:  Solving for Uy, Initial residual = 0.00068515, Final residual = 3.68122e-06, No Iterations 8
GAMG:  Solving for p, Initial residual = 0.000435976, Final residual = 2.35092e-06, No Iterations 5
time step continuity errors : sum local = 7.12076e-07, global = 1.48561e-16, cumulative = -3.45595e-16
smoothSolver:  Solving for nuTilda, Initial residual = 0.000688517, Final residual = 2.98758e-06, No Iterations 8
bounding nuTilda, min: -0.000152872 max: 0.422931 average: 0.0448194
ExecutionTime = 10.33 s  ClockTime = 11 s

Time = 115

smoothSolver:  Solving for Ux, Initial residual = 0.001309, Final residual = 5.12698e-06, No Iterations 8
[...]
forces wings output:
    sum of forces:
        pressure : (0.714964 10.2245 -3.16929e-19)
        viscous  : (0.170586 -0.0117712 1.56152e-20)
        porous   : (0 0 0)
    sum of moments:
        pressure : (-0.511224 0.0357482 0.0995941)
        viscous  : (0.00058856 0.0085293 -4.96787e-05)
        porous   : (0 0 0)

Time = 4971

smoothSolver:  Solving for Ux, Initial residual = 4.10302e-08, Final residual = 6.25555e-09, No Iterations 2
smoothSolver:  Solving for Uy, Initial residual = 1.1293e-07, Final residual = 3.47166e-09, No Iterations 4
GAMG:  Solving for p, Initial residual = 1.05265e-06, Final residual = 5.45471e-07, No Iterations 1
time step continuity errors : sum local = 1.64246e-07, global = -1.36582e-16, cumulative = 3.42146e-14
smoothSolver:  Solving for nuTilda, Initial residual = 9.40131e-09, Final residual = 9.40131e-09, No Iterations 0
ExecutionTime = 346.25 s  ClockTime = 349 s

Time = 4972

smoothSolver:  Solving for Ux, Initial residual = 4.30464e-08, Final residual = 6.57975e-09, No Iterations 2
smoothSolver:  Solving for Uy, Initial residual = 1.29443e-07, Final residual = 4.0923e-09, No Iterations 4
GAMG:  Solving for p, Initial residual = 7.8369e-07, Final residual = 7.8369e-07, No Iterations 0
time step continuity errors : sum local = 2.3596e-07, global = -1.43411e-16, cumulative = 3.40712e-14
smoothSolver:  Solving for nuTilda, Initial residual = 9.41684e-09, Final residual = 9.41684e-09, No Iterations 0
ExecutionTime = 346.31 s  ClockTime = 349 s

Time = 4973

smoothSolver:  Solving for Ux, Initial residual = 4.09937e-08, Final residual = 6.31378e-09, No Iterations 2
smoothSolver:  Solving for Uy, Initial residual = 1.22022e-07, Final residual = 3.94399e-09, No Iterations 4
GAMG:  Solving for p, Initial residual = 1.04685e-06, Final residual = 5.23349e-07, No Iterations 1
time step continuity errors : sum local = 1.5757e-07, global = -1.18496e-16, cumulative = 3.39527e-14
smoothSolver:  Solving for nuTilda, Initial residual = 9.36462e-09, Final residual = 9.36462e-09, No Iterations 0
ExecutionTime = 346.37 s  ClockTime = 349 s

Time = 4974

smoothSolver:  Solving for Ux, Initial residual = 4.57696e-08, Final residual = 7.32897e-09, No Iterations 2
smoothSolver:  Solving for Uy, Initial residual = 1.37784e-07, Final residual = 4.81258e-09, No Iterations 4
GAMG:  Solving for p, Initial residual = 7.77954e-07, Final residual = 7.77954e-07, No Iterations 0
time step continuity errors : sum local = 2.3423e-07, global = 1.72151e-16, cumulative = 3.41249e-14
smoothSolver:  Solving for nuTilda, Initial residual = 9.3564e-09, Final residual = 9.3564e-09, No Iterations 0
ExecutionTime = 346.43 s  ClockTime = 349 s

Time = 4975

smoothSolver:  Solving for Ux, Initial residual = 4.38053e-08, Final residual = 7.05807e-09, No Iterations 2
smoothSolver:  Solving for Uy, Initial residual = 1.3019e-07, Final residual = 4.61636e-09, No Iterations 4
GAMG:  Solving for p, Initial residual = 1.03722e-06, Final residual = 5.21826e-07, No Iterations 1
time step continuity errors : sum local = 1.57129e-07, global = -6.64557e-17, cumulative = 3.40584e-14
smoothSolver:  Solving for nuTilda, Initial residual = 9.34042e-09, Final residual = 9.34042e-09, No Iterations 0
ExecutionTime = 346.5 s  ClockTime = 349 s

forces wings output:
    sum of forces:
        pressure : (0.714965 10.2245 -3.16929e-19)
        viscous  : (0.170586 -0.0117712 1.56152e-20)
        porous   : (0 0 0)
    sum of moments:
        pressure : (-0.511225 0.0357483 0.0996059)
        viscous  : (0.00058856 0.0085293 -4.96833e-05)
        porous   : (0 0 0)

Time = 4976

smoothSolver:  Solving for Ux, Initial residual = 4.39795e-08, Final residual = 6.99073e-09, No Iterations 2
smoothSolver:  Solving for Uy, Initial residual = 1.27458e-07, Final residual = 4.18335e-09, No Iterations 4
GAMG:  Solving for p, Initial residual = 7.56206e-07, Final residual = 7.56206e-07, No Iterations 0
time step continuity errors : sum local = 2.27678e-07, global = -6.04851e-17, cumulative = 3.39979e-14
smoothSolver:  Solving for nuTilda, Initial residual = 9.36682e-09, Final residual = 9.36682e-09, No Iterations 0
ExecutionTime = 346.56 s  ClockTime = 349 s

Time = 4977

smoothSolver:  Solving for Ux, Initial residual = 4.19161e-08, Final residual = 6.6759e-09, No Iterations 2
smoothSolver:  Solving for Uy, Initial residual = 1.20118e-07, Final residual = 4.0433e-09, No Iterations 4
GAMG:  Solving for p, Initial residual = 1.01192e-06, Final residual = 5.26058e-07, No Iterations 1
time step continuity errors : sum local = 1.58407e-07, global = 3.98428e-16, cumulative = 3.43963e-14
smoothSolver:  Solving for nuTilda, Initial residual = 9.38789e-09, Final residual = 9.38789e-09, No Iterations 0
ExecutionTime = 346.62 s  ClockTime = 349 s

Time = 4978

smoothSolver:  Solving for Ux, Initial residual = 4.17275e-08, Final residual = 6.3833e-09, No Iterations 2
smoothSolver:  Solving for Uy, Initial residual = 1.19779e-07, Final residual = 3.56125e-09, No Iterations 4
GAMG:  Solving for p, Initial residual = 7.59954e-07, Final residual = 7.59954e-07, No Iterations 0
time step continuity errors : sum local = 2.28813e-07, global = 2.93815e-16, cumulative = 3.46902e-14
smoothSolver:  Solving for nuTilda, Initial residual = 9.43699e-09, Final residual = 9.43699e-09, No Iterations 0
ExecutionTime = 346.68 s  ClockTime = 349 s

Time = 4979

smoothSolver:  Solving for Ux, Initial residual = 3.96302e-08, Final residual = 6.11676e-09, No Iterations 2
smoothSolver:  Solving for Uy, Initial residual = 1.12461e-07, Final residual = 3.4142e-09, No Iterations 4
GAMG:  Solving for p, Initial residual = 1.02082e-06, Final residual = 5.21019e-07, No Iterations 1
time step continuity errors : sum local = 1.56876e-07, global = -6.87236e-17, cumulative = 3.46214e-14
smoothSolver:  Solving for nuTilda, Initial residual = 9.40437e-09, Final residual = 9.40437e-09, No Iterations 0
ExecutionTime = 346.75 s  ClockTime = 349 s

Time = 4980

smoothSolver:  Solving for Ux, Initial residual = 4.35489e-08, Final residual = 6.89004e-09, No Iterations 2
smoothSolver:  Solving for Uy, Initial residual = 1.29445e-07, Final residual = 4.42828e-09, No Iterations 4
GAMG:  Solving for p, Initial residual = 7.59062e-07, Final residual = 7.59062e-07, No Iterations 0
time step continuity errors : sum local = 2.28545e-07, global = -1.2323e-16, cumulative = 3.44982e-14
smoothSolver:  Solving for nuTilda, Initial residual = 9.46284e-09, Final residual = 9.46284e-09, No Iterations 0
ExecutionTime = 346.81 s  ClockTime = 349 s

forces wings output:
    sum of forces:
        pressure : (0.714966 10.2245 -3.16928e-19)
        viscous  : (0.170586 -0.0117712 1.56152e-20)
        porous   : (0 0 0)
    sum of moments:
        pressure : (-0.511225 0.0357483 0.0995865)
        viscous  : (0.00058856 0.0085293 -4.96802e-05)
        porous   : (0 0 0)

Time = 4981

smoothSolver:  Solving for Ux, Initial residual = 4.16043e-08, Final residual = 6.63341e-09, No Iterations 2
smoothSolver:  Solving for Uy, Initial residual = 1.22124e-07, Final residual = 4.21467e-09, No Iterations 4
GAMG:  Solving for p, Initial residual = 1.00734e-06, Final residual = 5.06217e-07, No Iterations 1
time step continuity errors : sum local = 1.52421e-07, global = 2.12017e-17, cumulative = 3.45194e-14
smoothSolver:  Solving for nuTilda, Initial residual = 9.39558e-09, Final residual = 9.39558e-09, No Iterations 0
ExecutionTime = 346.88 s  ClockTime = 349 s

Time = 4982

smoothSolver:  Solving for Ux, Initial residual = 4.44012e-08, Final residual = 7.18827e-09, No Iterations 2
smoothSolver:  Solving for Uy, Initial residual = 1.2885e-07, Final residual = 4.43143e-09, No Iterations 4
GAMG:  Solving for p, Initial residual = 7.3296e-07, Final residual = 7.3296e-07, No Iterations 0
time step continuity errors : sum local = 2.20677e-07, global = -4.89643e-17, cumulative = 3.44704e-14
smoothSolver:  Solving for nuTilda, Initial residual = 9.45186e-09, Final residual = 9.45186e-09, No Iterations 0
ExecutionTime = 346.95 s  ClockTime = 349 s

Time = 4983

smoothSolver:  Solving for Ux, Initial residual = 4.24111e-08, Final residual = 6.88917e-09, No Iterations 2
smoothSolver:  Solving for Uy, Initial residual = 1.21684e-07, Final residual = 4.28062e-09, No Iterations 4
GAMG:  Solving for p, Initial residual = 9.79571e-07, Final residual = 9.79571e-07, No Iterations 0
time step continuity errors : sum local = 2.94924e-07, global = -1.93743e-16, cumulative = 3.42767e-14
smoothSolver:  Solving for nuTilda, Initial residual = 9.4952e-09, Final residual = 9.4952e-09, No Iterations 0
ExecutionTime = 347.02 s  ClockTime = 349 s

Time = 4984

smoothSolver:  Solving for Ux, Initial residual = 4.10506e-08, Final residual = 6.719e-09, No Iterations 2
smoothSolver:  Solving for Uy, Initial residual = 1.15108e-07, Final residual = 4.12088e-09, No Iterations 4
GAMG:  Solving for p, Initial residual = 1.30705e-06, Final residual = 6.80769e-07, No Iterations 1
time step continuity errors : sum local = 2.04991e-07, global = -2.10072e-17, cumulative = 3.42557e-14
smoothSolver:  Solving for nuTilda, Initial residual = 9.43424e-09, Final residual = 9.43424e-09, No Iterations 0
ExecutionTime = 347.09 s  ClockTime = 349 s

Time = 4985

smoothSolver:  Solving for Ux, Initial residual = 4.30596e-08, Final residual = 6.3778e-09, No Iterations 2
smoothSolver:  Solving for Uy, Initial residual = 1.24463e-07, Final residual = 3.48794e-09, No Iterations 4
GAMG:  Solving for p, Initial residual = 7.90518e-07, Final residual = 7.90518e-07, No Iterations 0
time step continuity errors : sum local = 2.38013e-07, global = -1.3276e-16, cumulative = 3.41229e-14
smoothSolver:  Solving for nuTilda, Initial residual = 9.4462e-09, Final residual = 9.4462e-09, No Iterations 0
ExecutionTime = 347.15 s  ClockTime = 349 s

forces wings output:
    sum of forces:
        pressure : (0.714965 10.2245 -3.1693e-19)
        viscous  : (0.170586 -0.0117712 1.56152e-20)
        porous   : (0 0 0)
    sum of moments:
        pressure : (-0.511225 0.0357482 0.099598)
        viscous  : (0.00058856 0.0085293 -4.96797e-05)
        porous   : (0 0 0)

Time = 4986

smoothSolver:  Solving for Ux, Initial residual = 3.99528e-08, Final residual = 6.09422e-09, No Iterations 2
smoothSolver:  Solving for Uy, Initial residual = 1.16018e-07, Final residual = 3.28377e-09, No Iterations 4
GAMG:  Solving for p, Initial residual = 9.53051e-07, Final residual = 9.53051e-07, No Iterations 0
time step continuity errors : sum local = 2.86948e-07, global = 6.47424e-17, cumulative = 3.41877e-14
smoothSolver:  Solving for nuTilda, Initial residual = 9.44504e-09, Final residual = 9.44504e-09, No Iterations 0
ExecutionTime = 347.21 s  ClockTime = 349 s

Time = 4987

smoothSolver:  Solving for Ux, Initial residual = 3.83218e-08, Final residual = 5.87331e-09, No Iterations 2
smoothSolver:  Solving for Uy, Initial residual = 1.08354e-07, Final residual = 3.13373e-09, No Iterations 4
GAMG:  Solving for p, Initial residual = 1.29521e-06, Final residual = 6.37587e-07, No Iterations 1
time step continuity errors : sum local = 1.91974e-07, global = -7.9694e-18, cumulative = 3.41797e-14
smoothSolver:  Solving for nuTilda, Initial residual = 9.38984e-09, Final residual = 9.38984e-09, No Iterations 0
ExecutionTime = 347.27 s  ClockTime = 350 s

Time = 4988

smoothSolver:  Solving for Ux, Initial residual = 4.55142e-08, Final residual = 7.02554e-09, No Iterations 2
smoothSolver:  Solving for Uy, Initial residual = 1.32415e-07, Final residual = 4.39528e-09, No Iterations 4
GAMG:  Solving for p, Initial residual = 8.33897e-07, Final residual = 8.33897e-07, No Iterations 0
time step continuity errors : sum local = 2.51075e-07, global = -1.73729e-16, cumulative = 3.4006e-14
smoothSolver:  Solving for nuTilda, Initial residual = 9.386e-09, Final residual = 9.386e-09, No Iterations 0
ExecutionTime = 347.33 s  ClockTime = 350 s

Time = 4989

smoothSolver:  Solving for Ux, Initial residual = 4.28462e-08, Final residual = 6.71171e-09, No Iterations 2
smoothSolver:  Solving for Uy, Initial residual = 1.24543e-07, Final residual = 4.21157e-09, No Iterations 4
GAMG:  Solving for p, Initial residual = 1.02088e-06, Final residual = 5.0932e-07, No Iterations 1
time step continuity errors : sum local = 1.53353e-07, global = -1.73335e-16, cumulative = 3.38326e-14
smoothSolver:  Solving for nuTilda, Initial residual = 9.35766e-09, Final residual = 9.35766e-09, No Iterations 0
ExecutionTime = 347.4 s  ClockTime = 350 s

Time = 4990

smoothSolver:  Solving for Ux, Initial residual = 5.13661e-08, Final residual = 8.21831e-09, No Iterations 2
smoothSolver:  Solving for Uy, Initial residual = 1.48144e-07, Final residual = 4.89424e-09, No Iterations 4
GAMG:  Solving for p, Initial residual = 7.90093e-07, Final residual = 7.90093e-07, No Iterations 0
time step continuity errors : sum local = 2.37879e-07, global = -1.92759e-16, cumulative = 3.36399e-14
smoothSolver:  Solving for nuTilda, Initial residual = 9.38445e-09, Final residual = 9.38445e-09, No Iterations 0
ExecutionTime = 347.47 s  ClockTime = 350 s

forces wings output:
    sum of forces:
        pressure : (0.714964 10.2245 -3.16929e-19)
        viscous  : (0.170586 -0.0117712 1.56152e-20)
        porous   : (0 0 0)
    sum of moments:
        pressure : (-0.511224 0.0357482 0.0996029)
        viscous  : (0.00058856 0.0085293 -4.96829e-05)
        porous   : (0 0 0)

Time = 4991

smoothSolver:  Solving for Ux, Initial residual = 4.91466e-08, Final residual = 7.87421e-09, No Iterations 2
smoothSolver:  Solving for Uy, Initial residual = 1.39678e-07, Final residual = 4.72233e-09, No Iterations 4
GAMG:  Solving for p, Initial residual = 1.12925e-06, Final residual = 5.70802e-07, No Iterations 1
time step continuity errors : sum local = 1.71876e-07, global = 1.2447e-16, cumulative = 3.37643e-14
smoothSolver:  Solving for nuTilda, Initial residual = 9.39216e-09, Final residual = 9.39216e-09, No Iterations 0
ExecutionTime = 347.54 s  ClockTime = 350 s

Time = 4992

smoothSolver:  Solving for Ux, Initial residual = 4.31138e-08, Final residual = 6.84654e-09, No Iterations 2
smoothSolver:  Solving for Uy, Initial residual = 1.2593e-07, Final residual = 3.89979e-09, No Iterations 4
GAMG:  Solving for p, Initial residual = 8.46069e-07, Final residual = 8.46069e-07, No Iterations 0
time step continuity errors : sum local = 2.54736e-07, global = 5.93727e-17, cumulative = 3.38237e-14
smoothSolver:  Solving for nuTilda, Initial residual = 9.439e-09, Final residual = 9.439e-09, No Iterations 0
ExecutionTime = 347.6 s  ClockTime = 350 s

Time = 4993

smoothSolver:  Solving for Ux, Initial residual = 4.14695e-08, Final residual = 6.58181e-09, No Iterations 2
smoothSolver:  Solving for Uy, Initial residual = 1.18242e-07, Final residual = 3.73796e-09, No Iterations 4
GAMG:  Solving for p, Initial residual = 1.10027e-06, Final residual = 5.54253e-07, No Iterations 1
time step continuity errors : sum local = 1.66891e-07, global = 1.01872e-16, cumulative = 3.39256e-14
smoothSolver:  Solving for nuTilda, Initial residual = 9.39212e-09, Final residual = 9.39212e-09, No Iterations 0
ExecutionTime = 347.66 s  ClockTime = 350 s

Time = 4994

smoothSolver:  Solving for Ux, Initial residual = 4.4704e-08, Final residual = 6.70185e-09, No Iterations 2
smoothSolver:  Solving for Uy, Initial residual = 1.3251e-07, Final residual = 4.15014e-09, No Iterations 4
GAMG:  Solving for p, Initial residual = 7.98644e-07, Final residual = 7.98644e-07, No Iterations 0
time step continuity errors : sum local = 2.40462e-07, global = 3.3141e-17, cumulative = 3.39587e-14
smoothSolver:  Solving for nuTilda, Initial residual = 9.44134e-09, Final residual = 9.44134e-09, No Iterations 0
ExecutionTime = 347.73 s  ClockTime = 350 s

Time = 4995

smoothSolver:  Solving for Ux, Initial residual = 4.23153e-08, Final residual = 6.40225e-09, No Iterations 2
smoothSolver:  Solving for Uy, Initial residual = 1.24524e-07, Final residual = 3.95148e-09, No Iterations 4
GAMG:  Solving for p, Initial residual = 1.07365e-06, Final residual = 5.27734e-07, No Iterations 1
time step continuity errors : sum local = 1.5889e-07, global = -9.04227e-18, cumulative = 3.39497e-14
smoothSolver:  Solving for nuTilda, Initial residual = 9.38286e-09, Final residual = 9.38286e-09, No Iterations 0
ExecutionTime = 347.8 s  ClockTime = 350 s

forces wings output:
    sum of forces:
        pressure : (0.714965 10.2245 -3.16928e-19)
        viscous  : (0.170586 -0.0117712 1.56152e-20)
        porous   : (0 0 0)
    sum of moments:
        pressure : (-0.511225 0.0357483 0.0995899)
        viscous  : (0.00058856 0.0085293 -4.96786e-05)
        porous   : (0 0 0)

Time = 4996

smoothSolver:  Solving for Ux, Initial residual = 4.47298e-08, Final residual = 7.03228e-09, No Iterations 2
smoothSolver:  Solving for Uy, Initial residual = 1.30233e-07, Final residual = 4.35995e-09, No Iterations 4
GAMG:  Solving for p, Initial residual = 7.96515e-07, Final residual = 7.96515e-07, No Iterations 0
time step continuity errors : sum local = 2.39819e-07, global = -1.41816e-16, cumulative = 3.38079e-14
smoothSolver:  Solving for nuTilda, Initial residual = 9.43968e-09, Final residual = 9.43968e-09, No Iterations 0
ExecutionTime = 347.87 s  ClockTime = 350 s

Time = 4997

smoothSolver:  Solving for Ux, Initial residual = 4.264e-08, Final residual = 6.72014e-09, No Iterations 2
smoothSolver:  Solving for Uy, Initial residual = 1.22855e-07, Final residual = 4.21869e-09, No Iterations 4
GAMG:  Solving for p, Initial residual = 1.06458e-06, Final residual = 5.40739e-07, No Iterations 1
time step continuity errors : sum local = 1.6282e-07, global = 1.86894e-16, cumulative = 3.39948e-14
smoothSolver:  Solving for nuTilda, Initial residual = 9.41506e-09, Final residual = 9.41506e-09, No Iterations 0
ExecutionTime = 347.95 s  ClockTime = 350 s

Time = 4998

smoothSolver:  Solving for Ux, Initial residual = 4.47932e-08, Final residual = 7.04536e-09, No Iterations 2
smoothSolver:  Solving for Uy, Initial residual = 1.28919e-07, Final residual = 4.04714e-09, No Iterations 4
GAMG:  Solving for p, Initial residual = 7.90058e-07, Final residual = 7.90058e-07, No Iterations 0
time step continuity errors : sum local = 2.37869e-07, global = -9.47486e-18, cumulative = 3.39853e-14
smoothSolver:  Solving for nuTilda, Initial residual = 9.44632e-09, Final residual = 9.44632e-09, No Iterations 0
ExecutionTime = 348.01 s  ClockTime = 350 s

Time = 4999

smoothSolver:  Solving for Ux, Initial residual = 4.2754e-08, Final residual = 6.77233e-09, No Iterations 2
smoothSolver:  Solving for Uy, Initial residual = 1.21261e-07, Final residual = 3.88775e-09, No Iterations 4
GAMG:  Solving for p, Initial residual = 1.06052e-06, Final residual = 5.2646e-07, No Iterations 1
time step continuity errors : sum local = 1.58526e-07, global = 6.12033e-17, cumulative = 3.40465e-14
smoothSolver:  Solving for nuTilda, Initial residual = 9.40021e-09, Final residual = 9.40021e-09, No Iterations 0
ExecutionTime = 348.08 s  ClockTime = 350 s

Time = 5000

smoothSolver:  Solving for Ux, Initial residual = 4.34232e-08, Final residual = 6.6495e-09, No Iterations 2
smoothSolver:  Solving for Uy, Initial residual = 1.26972e-07, Final residual = 3.97503e-09, No Iterations 4
GAMG:  Solving for p, Initial residual = 7.8662e-07, Final residual = 7.8662e-07, No Iterations 0
time step continuity errors : sum local = 2.3684e-07, global = 1.83007e-16, cumulative = 3.42295e-14
smoothSolver:  Solving for nuTilda, Initial residual = 9.40107e-09, Final residual = 9.40107e-09, No Iterations 0
ExecutionTime = 348.29 s  ClockTime = 351 s

forces wings output:
    sum of forces:
        pressure : (0.714966 10.2245 -3.1693e-19)
        viscous  : (0.170586 -0.0117712 1.56152e-20)
        porous   : (0 0 0)
    sum of moments:
        pressure : (-0.511226 0.0357483 0.0996097)
        viscous  : (0.00058856 0.0085293 -4.96826e-05)
        porous   : (0 0 0)

End

