/*---------------------------------------------------------------------------*\
| =========                 |                                                 |
| \\      /  F ield         | OpenFOAM: The Open Source CFD Toolbox           |
|  \\    /   O peration     | Version:  2.3.0                                 |
|   \\  /    A nd           | Web:      www.OpenFOAM.org                      |
|    \\/     M anipulation  |                                                 |
\*---------------------------------------------------------------------------*/
Build  : 2.3.0-f5222ca19ce6
Exec   : simpleFoam -case Runs/first_arc_300_-2/case
Date   : Jan 12 2015
Time   : 00:31:08
Host   : "lordvon-XPS-8300"
PID    : 9705
Case   : Runs/first_arc_300_-2/case
nProcs : 1
sigFpe : Enabling floating point exception trapping (FOAM_SIGFPE).
fileModificationChecking : Monitoring run-time modified files using timeStampMaster
allowSystemOperations : Disallowing user-supplied system call operations

// * * * * * * * * * * * * * * * * * * * * * * * * * * * * * * * * * * * * * //
Create time

Create mesh for time = 0

Reading field p

Reading field U

Reading/calculating face flux field phi

Selecting incompressible transport model Newtonian
Selecting RAS turbulence model SpalartAllmaras
SpalartAllmarasCoeffs
{
    sigmaNut        0.66666;
    kappa           0.41;
    Cb1             0.1355;
    Cb2             0.622;
    Cw2             0.3;
    Cw3             2;
    Cv1             7.1;
    Cv2             5;
}

    Employing Ashford correction
No finite volume options present


SIMPLE: convergence criteria
    field p	 tolerance 1e-12
    field U	 tolerance 1e-12
    field nuTilda	 tolerance 1e-12


Starting time loop

forces wings:
    Not including porosity effects

Time = 1

smoothSolver:  Solving for Ux, Initial residual = 1, Final residual = 0.00903887, No Iterations 6
smoothSolver:  Solving for Uy, Initial residual = 1, Final residual = 0.00875392, No Iterations 4
GAMG:  Solving for p, Initial residual = 1, Final residual = 0.0095332, No Iterations 9
time step continuity errors : sum local = 0.000823052, global = -6.22969e-17, cumulative = -6.22969e-17
smoothSolver:  Solving for nuTilda, Initial residual = 1, Final residual = 0.00393107, No Iterations 4
ExecutionTime = 0.35 s  ClockTime = 0 s

Time = 2

smoothSolver:  Solving for Ux, Initial residual = 0.544866, Final residual = 0.00282881, No Iterations 8
smoothSolver:  Solving for Uy, Initial residual = 0.612399, Final residual = 0.00340737, No Iterations 8
GAMG:  Solving for p, Initial residual = 0.747065, Final residual = 0.00391912, No Iterations 6
time step continuity errors : sum local = 0.000677112, global = -2.19559e-17, cumulative = -8.42528e-17
smoothSolver:  Solving for nuTilda, Initial residual = 0.186764, Final residual = 0.000716249, No Iterations 6
ExecutionTime = 0.44 s  ClockTime = 1 s

Time = 3

smoothSolver:  Solving for Ux, Initial residual = 0.200234, Final residual = 0.00101955, No Iterations 8
smoothSolver:  Solving for Uy, Initial residual = 0.209121, Final residual = 0.00114512, No Iterations 8
GAMG:  Solving for p, Initial residual = 0.585268, Final residual = 0.00471624, No Iterations 8
time step continuity errors : sum local = 0.00112446, global = -2.06364e-16, cumulative = -2.90617e-16
smoothSolver:  Solving for nuTilda, Initial residual = 0.0957454, Final residual = 0.000858739, No Iterations 6
ExecutionTime = 0.54 s  ClockTime = 1 s

Time = 4

smoothSolver:  Solving for Ux, Initial residual = 0.0668541, Final residual = 0.000269512, No Iterations 8
smoothSolver:  Solving for Uy, Initial residual = 0.0664203, Final residual = 0.000341188, No Iterations 8
GAMG:  Solving for p, Initial residual = 0.461191, Final residual = 0.00324875, No Iterations 7
time step continuity errors : sum local = 0.000782893, global = -8.21934e-17, cumulative = -3.72811e-16
smoothSolver:  Solving for nuTilda, Initial residual = 0.0725258, Final residual = 0.00020702, No Iterations 8
ExecutionTime = 0.63 s  ClockTime = 1 s

Time = 5

smoothSolver:  Solving for Ux, Initial residual = 0.20215, Final residual = 0.00101054, No Iterations 8
smoothSolver:  Solving for Uy, Initial residual = 0.276498, Final residual = 0.00148335, No Iterations 8
GAMG:  Solving for p, Initial residual = 0.396357, Final residual = 0.00350048, No Iterations 6
time step continuity errors : sum local = 0.000896284, global = -6.36169e-17, cumulative = -4.36427e-16
smoothSolver:  Solving for nuTilda, Initial residual = 0.0590671, Final residual = 0.000188894, No Iterations 8
ExecutionTime = 0.72 s  ClockTime = 1 s

forces wings output:
    sum of forces:
        pressure : (-155.492 272.929 -2.51202e-18)
        viscous  : (0.53535 0.0125004 -2.62929e-20)
        porous   : (0 0 0)
    sum of moments:
        pressure : (-13.6465 -7.7746 -202.654)
        viscous  : (-0.000625022 0.0267675 -0.0430361)
        porous   : (0 0 0)

Time = 6

smoothSolver:  Solving for Ux, Initial residual = 0.169933, Final residual = 0.000809338, No Iterations 8
smoothSolver:  Solving for Uy, Initial residual = 0.236617, Final residual = 0.00126221, No Iterations 8
GAMG:  Solving for p, Initial residual = 0.327755, Final residual = 0.00265017, No Iterations 8
time step continuity errors : sum local = 0.00071373, global = -6.8466e-17, cumulative = -5.04893e-16
smoothSolver:  Solving for nuTilda, Initial residual = 0.0486898, Final residual = 0.0001644, No Iterations 8
ExecutionTime = 0.82 s  ClockTime = 1 s

Time = 7

smoothSolver:  Solving for Ux, Initial residual = 0.11304, Final residual = 0.00047467, No Iterations 8
smoothSolver:  Solving for Uy, Initial residual = 0.15563, Final residual = 0.000800583, No Iterations 8
GAMG:  Solving for p, Initial residual = 0.244334, Final residual = 0.00174208, No Iterations 6
time step continuity errors : sum local = 0.000470015, global = 3.07044e-16, cumulative = -1.97849e-16
smoothSolver:  Solving for nuTilda, Initial residual = 0.0407272, Final residual = 0.000142241, No Iterations 8
ExecutionTime = 0.91 s  ClockTime = 1 s

Time = 8

smoothSolver:  Solving for Ux, Initial residual = 0.132045, Final residual = 0.000640362, No Iterations 8
smoothSolver:  Solving for Uy, Initial residual = 0.165974, Final residual = 0.000870881, No Iterations 8
GAMG:  Solving for p, Initial residual = 0.249507, Final residual = 0.00221762, No Iterations 6
time step continuity errors : sum local = 0.000630125, global = 7.43768e-17, cumulative = -1.23473e-16
smoothSolver:  Solving for nuTilda, Initial residual = 0.0345867, Final residual = 0.000123837, No Iterations 8
ExecutionTime = 1 s  ClockTime = 1 s

Time = 9

smoothSolver:  Solving for Ux, Initial residual = 0.0555668, Final residual = 0.000248009, No Iterations 8
smoothSolver:  Solving for Uy, Initial residual = 0.0485229, Final residual = 0.000248085, No Iterations 8
GAMG:  Solving for p, Initial residual = 0.202723, Final residual = 0.00138955, No Iterations 8
time step continuity errors : sum local = 0.000399525, global = -6.48841e-17, cumulative = -1.88357e-16
smoothSolver:  Solving for nuTilda, Initial residual = 0.0297527, Final residual = 0.000109136, No Iterations 8
ExecutionTime = 1.1 s  ClockTime = 1 s

Time = 10

smoothSolver:  Solving for Ux, Initial residual = 0.053036, Final residual = 0.000227064, No Iterations 8
smoothSolver:  Solving for Uy, Initial residual = 0.0723637, Final residual = 0.000366307, No Iterations 8
GAMG:  Solving for p, Initial residual = 0.164366, Final residual = 0.00123009, No Iterations 5
time step continuity errors : sum local = 0.000349471, global = -6.33426e-17, cumulative = -2.51699e-16
smoothSolver:  Solving for nuTilda, Initial residual = 0.025964, Final residual = 9.77493e-05, No Iterations 8
ExecutionTime = 1.18 s  ClockTime = 1 s

forces wings output:
    sum of forces:
        pressure : (-91.2589 178.918 -1.20148e-18)
        viscous  : (0.504669 0.0209604 -3.32816e-20)
        porous   : (0 0 0)
    sum of moments:
        pressure : (-8.9459 -4.56295 -113.037)
        viscous  : (-0.00104802 0.0252335 -0.0496051)
        porous   : (0 0 0)

Time = 11

smoothSolver:  Solving for Ux, Initial residual = 0.0715094, Final residual = 0.000336044, No Iterations 8
smoothSolver:  Solving for Uy, Initial residual = 0.103072, Final residual = 0.000526962, No Iterations 8
GAMG:  Solving for p, Initial residual = 0.163872, Final residual = 0.00112454, No Iterations 7
time step continuity errors : sum local = 0.000324538, global = -4.24786e-17, cumulative = -2.94178e-16
smoothSolver:  Solving for nuTilda, Initial residual = 0.0228985, Final residual = 8.8578e-05, No Iterations 8
ExecutionTime = 1.28 s  ClockTime = 1 s

Time = 12

smoothSolver:  Solving for Ux, Initial residual = 0.0344118, Final residual = 0.00013392, No Iterations 8
smoothSolver:  Solving for Uy, Initial residual = 0.0280419, Final residual = 0.000127987, No Iterations 8
GAMG:  Solving for p, Initial residual = 0.129545, Final residual = 0.00104498, No Iterations 7
time step continuity errors : sum local = 0.000297988, global = 1.36667e-16, cumulative = -1.57511e-16
smoothSolver:  Solving for nuTilda, Initial residual = 0.0203641, Final residual = 8.09167e-05, No Iterations 8
ExecutionTime = 1.38 s  ClockTime = 1 s

Time = 13

smoothSolver:  Solving for Ux, Initial residual = 0.044655, Final residual = 0.000186789, No Iterations 8
smoothSolver:  Solving for Uy, Initial residual = 0.0627321, Final residual = 0.00031096, No Iterations 8
GAMG:  Solving for p, Initial residual = 0.109526, Final residual = 0.00097476, No Iterations 5
time step continuity errors : sum local = 0.000274799, global = 1.42182e-16, cumulative = -1.53297e-17
smoothSolver:  Solving for nuTilda, Initial residual = 0.0182321, Final residual = 7.42527e-05, No Iterations 8
ExecutionTime = 1.46 s  ClockTime = 2 s

Time = 14

smoothSolver:  Solving for Ux, Initial residual = 0.0416008, Final residual = 0.00018629, No Iterations 8
smoothSolver:  Solving for Uy, Initial residual = 0.0492589, Final residual = 0.000244425, No Iterations 8
GAMG:  Solving for p, Initial residual = 0.10957, Final residual = 0.0010335, No Iterations 6
time step continuity errors : sum local = 0.000298951, global = 2.64481e-16, cumulative = 2.49151e-16
smoothSolver:  Solving for nuTilda, Initial residual = 0.0164053, Final residual = 6.85488e-05, No Iterations 8
ExecutionTime = 1.55 s  ClockTime = 2 s

Time = 15

smoothSolver:  Solving for Ux, Initial residual = 0.0206474, Final residual = 7.82695e-05, No Iterations 8
smoothSolver:  Solving for Uy, Initial residual = 0.0146549, Final residual = 6.25271e-05, No Iterations 8
GAMG:  Solving for p, Initial residual = 0.0856433, Final residual = 0.000762439, No Iterations 6
time step continuity errors : sum local = 0.000217586, global = -1.24315e-16, cumulative = 1.24836e-16
smoothSolver:  Solving for nuTilda, Initial residual = 0.0148562, Final residual = 6.36816e-05, No Iterations 8
ExecutionTime = 1.64 s  ClockTime = 2 s

forces wings output:
    sum of forces:
        pressure : (-29.0767 65.7221 8.84327e-20)
        viscous  : (0.490749 0.0197173 -1.76427e-20)
        porous   : (0 0 0)
    sum of moments:
        pressure : (-3.2861 -1.45383 -33.2705)
        viscous  : (-0.000985865 0.0245374 -0.0468455)
        porous   : (0 0 0)

Time = 16

smoothSolver:  Solving for Ux, Initial residual = 0.0252776, Final residual = 0.000103127, No Iterations 8
smoothSolver:  Solving for Uy, Initial residual = 0.0367865, Final residual = 0.000177049, No Iterations 8
GAMG:  Solving for p, Initial residual = 0.0761316, Final residual = 0.000402269, No Iterations 6
time step continuity errors : sum local = 0.000114017, global = -1.00173e-16, cumulative = 2.46631e-17
smoothSolver:  Solving for nuTilda, Initial residual = 0.0135846, Final residual = 5.95843e-05, No Iterations 8
ExecutionTime = 1.74 s  ClockTime = 2 s

Time = 17

smoothSolver:  Solving for Ux, Initial residual = 0.022192, Final residual = 9.39642e-05, No Iterations 8
smoothSolver:  Solving for Uy, Initial residual = 0.0296302, Final residual = 0.000141005, No Iterations 8
GAMG:  Solving for p, Initial residual = 0.0721848, Final residual = 0.000525759, No Iterations 6
time step continuity errors : sum local = 0.000151632, global = 2.71538e-16, cumulative = 2.96201e-16
smoothSolver:  Solving for nuTilda, Initial residual = 0.0125028, Final residual = 5.59979e-05, No Iterations 8
ExecutionTime = 1.83 s  ClockTime = 2 s

Time = 18

smoothSolver:  Solving for Ux, Initial residual = 0.0129566, Final residual = 4.39538e-05, No Iterations 8
smoothSolver:  Solving for Uy, Initial residual = 0.0151885, Final residual = 6.60438e-05, No Iterations 8
GAMG:  Solving for p, Initial residual = 0.0569884, Final residual = 0.000420703, No Iterations 5
time step continuity errors : sum local = 0.000119088, global = -6.94459e-17, cumulative = 2.26756e-16
smoothSolver:  Solving for nuTilda, Initial residual = 0.0115622, Final residual = 5.27006e-05, No Iterations 8
ExecutionTime = 1.91 s  ClockTime = 2 s

Time = 19

smoothSolver:  Solving for Ux, Initial residual = 0.0175315, Final residual = 7.14181e-05, No Iterations 8
smoothSolver:  Solving for Uy, Initial residual = 0.0235613, Final residual = 0.000112012, No Iterations 8
GAMG:  Solving for p, Initial residual = 0.0523638, Final residual = 0.000273621, No Iterations 6
time step continuity errors : sum local = 7.64913e-05, global = -9.01097e-17, cumulative = 1.36646e-16
smoothSolver:  Solving for nuTilda, Initial residual = 0.0107302, Final residual = 4.96252e-05, No Iterations 8
ExecutionTime = 2.01 s  ClockTime = 2 s

Time = 20

smoothSolver:  Solving for Ux, Initial residual = 0.014052, Final residual = 6.03508e-05, No Iterations 8
smoothSolver:  Solving for Uy, Initial residual = 0.0132032, Final residual = 6.25908e-05, No Iterations 8
GAMG:  Solving for p, Initial residual = 0.0467966, Final residual = 0.000461464, No Iterations 5
time step continuity errors : sum local = 0.000130713, global = 5.31521e-17, cumulative = 1.89798e-16
smoothSolver:  Solving for nuTilda, Initial residual = 0.0100001, Final residual = 4.68035e-05, No Iterations 8
ExecutionTime = 2.09 s  ClockTime = 2 s

forces wings output:
    sum of forces:
        pressure : (-2.87265 13.0074 3.54369e-19)
        viscous  : (0.477953 0.0170169 -5.67441e-21)
        porous   : (0 0 0)
    sum of moments:
        pressure : (-0.65037 -0.143632 -1.23512)
        viscous  : (-0.000850847 0.0238976 -0.0434768)
        porous   : (0 0 0)

Time = 21

smoothSolver:  Solving for Ux, Initial residual = 0.0100287, Final residual = 4.1064e-05, No Iterations 8
smoothSolver:  Solving for Uy, Initial residual = 0.00985489, Final residual = 4.51293e-05, No Iterations 8
GAMG:  Solving for p, Initial residual = 0.0379989, Final residual = 0.000370719, No Iterations 5
time step continuity errors : sum local = 0.000105836, global = 2.3352e-17, cumulative = 2.1315e-16
smoothSolver:  Solving for nuTilda, Initial residual = 0.0093799, Final residual = 4.42838e-05, No Iterations 8
ExecutionTime = 2.18 s  ClockTime = 2 s

Time = 22

smoothSolver:  Solving for Ux, Initial residual = 0.00989729, Final residual = 4.10074e-05, No Iterations 8
smoothSolver:  Solving for Uy, Initial residual = 0.0143283, Final residual = 6.8334e-05, No Iterations 8
GAMG:  Solving for p, Initial residual = 0.0354468, Final residual = 0.000187557, No Iterations 6
time step continuity errors : sum local = 5.27825e-05, global = 1.25089e-17, cumulative = 2.25659e-16
smoothSolver:  Solving for nuTilda, Initial residual = 0.00885116, Final residual = 4.20317e-05, No Iterations 8
ExecutionTime = 2.27 s  ClockTime = 2 s

Time = 23

smoothSolver:  Solving for Ux, Initial residual = 0.00718367, Final residual = 2.82414e-05, No Iterations 8
smoothSolver:  Solving for Uy, Initial residual = 0.00795103, Final residual = 3.67379e-05, No Iterations 8
GAMG:  Solving for p, Initial residual = 0.0304984, Final residual = 0.000256904, No Iterations 5
time step continuity errors : sum local = 7.23668e-05, global = 2.39743e-17, cumulative = 2.49633e-16
smoothSolver:  Solving for nuTilda, Initial residual = 0.0083875, Final residual = 3.99846e-05, No Iterations 8
ExecutionTime = 2.36 s  ClockTime = 2 s

Time = 24

smoothSolver:  Solving for Ux, Initial residual = 0.00651509, Final residual = 2.34982e-05, No Iterations 8
smoothSolver:  Solving for Uy, Initial residual = 0.00850057, Final residual = 3.88109e-05, No Iterations 8
GAMG:  Solving for p, Initial residual = 0.0261252, Final residual = 0.000213807, No Iterations 5
time step continuity errors : sum local = 6.08535e-05, global = -6.36936e-17, cumulative = 1.8594e-16
smoothSolver:  Solving for nuTilda, Initial residual = 0.00795691, Final residual = 3.806e-05, No Iterations 8
ExecutionTime = 2.45 s  ClockTime = 3 s

Time = 25

smoothSolver:  Solving for Ux, Initial residual = 0.007873, Final residual = 3.21255e-05, No Iterations 8
smoothSolver:  Solving for Uy, Initial residual = 0.00859852, Final residual = 4.06297e-05, No Iterations 8
GAMG:  Solving for p, Initial residual = 0.0247386, Final residual = 0.000234691, No Iterations 5
time step continuity errors : sum local = 6.59408e-05, global = -2.45997e-17, cumulative = 1.6134e-16
smoothSolver:  Solving for nuTilda, Initial residual = 0.00755947, Final residual = 3.62607e-05, No Iterations 8
ExecutionTime = 2.53 s  ClockTime = 3 s

forces wings output:
    sum of forces:
        pressure : (3.02457 2.01326 2.84208e-19)
        viscous  : (0.464011 0.0151632 -1.11479e-21)
        porous   : (0 0 0)
    sum of moments:
        pressure : (-0.100663 0.151228 6.24824)
        viscous  : (-0.000758158 0.0232006 -0.0411739)
        porous   : (0 0 0)

Time = 26

smoothSolver:  Solving for Ux, Initial residual = 0.00660691, Final residual = 2.77938e-05, No Iterations 8
smoothSolver:  Solving for Uy, Initial residual = 0.00455823, Final residual = 2.12441e-05, No Iterations 8
GAMG:  Solving for p, Initial residual = 0.0207144, Final residual = 0.000132619, No Iterations 6
time step continuity errors : sum local = 3.73972e-05, global = -1.12987e-17, cumulative = 1.50041e-16
smoothSolver:  Solving for nuTilda, Initial residual = 0.00718937, Final residual = 3.45528e-05, No Iterations 8
ExecutionTime = 2.63 s  ClockTime = 3 s

Time = 27

smoothSolver:  Solving for Ux, Initial residual = 0.00560495, Final residual = 2.35699e-05, No Iterations 8
smoothSolver:  Solving for Uy, Initial residual = 0.00571307, Final residual = 2.603e-05, No Iterations 8
GAMG:  Solving for p, Initial residual = 0.0179678, Final residual = 0.000103521, No Iterations 6
time step continuity errors : sum local = 2.91124e-05, global = -1.43542e-16, cumulative = 6.49906e-18
smoothSolver:  Solving for nuTilda, Initial residual = 0.00685829, Final residual = 3.3017e-05, No Iterations 8
ExecutionTime = 2.72 s  ClockTime = 3 s

Time = 28

smoothSolver:  Solving for Ux, Initial residual = 0.00483, Final residual = 1.96853e-05, No Iterations 8
smoothSolver:  Solving for Uy, Initial residual = 0.00581343, Final residual = 2.7159e-05, No Iterations 8
GAMG:  Solving for p, Initial residual = 0.0170634, Final residual = 0.000149775, No Iterations 5
time step continuity errors : sum local = 4.206e-05, global = 3.44349e-16, cumulative = 3.50848e-16
smoothSolver:  Solving for nuTilda, Initial residual = 0.00654909, Final residual = 3.15607e-05, No Iterations 8
ExecutionTime = 2.82 s  ClockTime = 3 s

Time = 29

smoothSolver:  Solving for Ux, Initial residual = 0.00415875, Final residual = 1.59146e-05, No Iterations 8
smoothSolver:  Solving for Uy, Initial residual = 0.0039751, Final residual = 1.82781e-05, No Iterations 8
GAMG:  Solving for p, Initial residual = 0.0144575, Final residual = 7.83114e-05, No Iterations 5
time step continuity errors : sum local = 2.19468e-05, global = -4.33602e-17, cumulative = 3.07488e-16
smoothSolver:  Solving for nuTilda, Initial residual = 0.00627353, Final residual = 3.02578e-05, No Iterations 8
ExecutionTime = 2.91 s  ClockTime = 3 s

Time = 30

smoothSolver:  Solving for Ux, Initial residual = 0.00452813, Final residual = 1.75843e-05, No Iterations 8
smoothSolver:  Solving for Uy, Initial residual = 0.00446357, Final residual = 2.04966e-05, No Iterations 8
GAMG:  Solving for p, Initial residual = 0.0130355, Final residual = 8.38652e-05, No Iterations 5
time step continuity errors : sum local = 2.35262e-05, global = -1.96084e-16, cumulative = 1.11404e-16
smoothSolver:  Solving for nuTilda, Initial residual = 0.00600406, Final residual = 2.89604e-05, No Iterations 8
ExecutionTime = 2.99 s  ClockTime = 3 s

forces wings output:
    sum of forces:
        pressure : (2.57397 4.68046 1.75945e-19)
        viscous  : (0.44991 0.0140765 1.24446e-22)
        porous   : (0 0 0)
    sum of moments:
        pressure : (-0.234023 0.128699 6.25195)
        viscous  : (-0.000703827 0.0224955 -0.0396332)
        porous   : (0 0 0)

Time = 31

smoothSolver:  Solving for Ux, Initial residual = 0.00474601, Final residual = 1.95073e-05, No Iterations 8
smoothSolver:  Solving for Uy, Initial residual = 0.0036158, Final residual = 1.70369e-05, No Iterations 8
GAMG:  Solving for p, Initial residual = 0.0121656, Final residual = 8.9283e-05, No Iterations 5
time step continuity errors : sum local = 2.49108e-05, global = 1.33662e-16, cumulative = 2.45066e-16
smoothSolver:  Solving for nuTilda, Initial residual = 0.00576381, Final residual = 2.78144e-05, No Iterations 8
ExecutionTime = 3.09 s  ClockTime = 3 s

Time = 32

smoothSolver:  Solving for Ux, Initial residual = 0.00438762, Final residual = 1.84948e-05, No Iterations 8
smoothSolver:  Solving for Uy, Initial residual = 0.0028412, Final residual = 1.31865e-05, No Iterations 8
GAMG:  Solving for p, Initial residual = 0.0102104, Final residual = 4.38131e-05, No Iterations 5
time step continuity errors : sum local = 1.22564e-05, global = -3.57961e-17, cumulative = 2.0927e-16
smoothSolver:  Solving for nuTilda, Initial residual = 0.00552499, Final residual = 2.66557e-05, No Iterations 8
bounding nuTilda, min: -4.19441e-07 max: 0.405611 average: 0.0820362
ExecutionTime = 3.17 s  ClockTime = 3 s

Time = 33

smoothSolver:  Solving for Ux, Initial residual = 0.00394719, Final residual = 1.65924e-05, No Iterations 8
smoothSolver:  Solving for Uy, Initial residual = 0.00323509, Final residual = 1.49748e-05, No Iterations 8
GAMG:  Solving for p, Initial residual = 0.00926275, Final residual = 6.33603e-05, No Iterations 5
time step continuity errors : sum local = 1.76837e-05, global = 2.0007e-17, cumulative = 2.29276e-16
smoothSolver:  Solving for nuTilda, Initial residual = 0.00531748, Final residual = 2.56678e-05, No Iterations 8
ExecutionTime = 3.27 s  ClockTime = 3 s

Time = 34

smoothSolver:  Solving for Ux, Initial residual = 0.00365754, Final residual = 1.49465e-05, No Iterations 8
smoothSolver:  Solving for Uy, Initial residual = 0.00278524, Final residual = 1.30805e-05, No Iterations 8
GAMG:  Solving for p, Initial residual = 0.00835896, Final residual = 7.29441e-05, No Iterations 5
time step continuity errors : sum local = 2.03935e-05, global = 1.32999e-16, cumulative = 3.62276e-16
smoothSolver:  Solving for nuTilda, Initial residual = 0.00510988, Final residual = 2.46526e-05, No Iterations 8
ExecutionTime = 3.36 s  ClockTime = 3 s

Time = 35

smoothSolver:  Solving for Ux, Initial residual = 0.00361957, Final residual = 1.44269e-05, No Iterations 8
smoothSolver:  Solving for Uy, Initial residual = 0.00261711, Final residual = 1.22803e-05, No Iterations 8
GAMG:  Solving for p, Initial residual = 0.00721124, Final residual = 2.9814e-05, No Iterations 5
time step continuity errors : sum local = 8.33597e-06, global = -1.45699e-16, cumulative = 2.16577e-16
smoothSolver:  Solving for nuTilda, Initial residual = 0.00492657, Final residual = 2.37839e-05, No Iterations 8
bounding nuTilda, min: -4.81056e-07 max: 0.405563 average: 0.0796391
ExecutionTime = 3.44 s  ClockTime = 4 s

forces wings output:
    sum of forces:
        pressure : (1.6299 7.37862 1.36126e-19)
        viscous  : (0.435351 0.0133459 -1.34828e-22)
        porous   : (0 0 0)
    sum of moments:
        pressure : (-0.368931 0.0814951 5.34945)
        viscous  : (-0.000667295 0.0217675 -0.0383274)
        porous   : (0 0 0)

Time = 36

smoothSolver:  Solving for Ux, Initial residual = 0.00375652, Final residual = 1.51591e-05, No Iterations 8
smoothSolver:  Solving for Uy, Initial residual = 0.00252395, Final residual = 1.20089e-05, No Iterations 8
GAMG:  Solving for p, Initial residual = 0.00669048, Final residual = 4.31604e-05, No Iterations 5
time step continuity errors : sum local = 1.19404e-05, global = 1.9782e-16, cumulative = 4.14397e-16
smoothSolver:  Solving for nuTilda, Initial residual = 0.00474301, Final residual = 2.28807e-05, No Iterations 8
ExecutionTime = 3.54 s  ClockTime = 4 s

Time = 37

smoothSolver:  Solving for Ux, Initial residual = 0.00374355, Final residual = 1.55121e-05, No Iterations 8
smoothSolver:  Solving for Uy, Initial residual = 0.00201558, Final residual = 9.92856e-06, No Iterations 8
GAMG:  Solving for p, Initial residual = 0.0060368, Final residual = 3.15949e-05, No Iterations 5
time step continuity errors : sum local = 8.80202e-06, global = 9.58727e-17, cumulative = 5.10269e-16
smoothSolver:  Solving for nuTilda, Initial residual = 0.00457975, Final residual = 2.2099e-05, No Iterations 8
ExecutionTime = 3.63 s  ClockTime = 4 s

Time = 38

smoothSolver:  Solving for Ux, Initial residual = 0.00355987, Final residual = 1.49732e-05, No Iterations 8
smoothSolver:  Solving for Uy, Initial residual = 0.0020417, Final residual = 9.80884e-06, No Iterations 8
GAMG:  Solving for p, Initial residual = 0.00509689, Final residual = 4.99255e-05, No Iterations 4
time step continuity errors : sum local = 1.39064e-05, global = -1.02259e-16, cumulative = 4.08011e-16
smoothSolver:  Solving for nuTilda, Initial residual = 0.00441649, Final residual = 2.12959e-05, No Iterations 8
bounding nuTilda, min: -6.36199e-05 max: 0.40558 average: 0.0773975
ExecutionTime = 3.71 s  ClockTime = 4 s

Time = 39

smoothSolver:  Solving for Ux, Initial residual = 0.00336718, Final residual = 1.41306e-05, No Iterations 8
smoothSolver:  Solving for Uy, Initial residual = 0.00208184, Final residual = 9.98409e-06, No Iterations 8
GAMG:  Solving for p, Initial residual = 0.00462969, Final residual = 3.59979e-05, No Iterations 5
time step continuity errors : sum local = 1.00865e-05, global = 1.3796e-16, cumulative = 5.45971e-16
smoothSolver:  Solving for nuTilda, Initial residual = 0.00426892, Final residual = 2.05888e-05, No Iterations 8
ExecutionTime = 3.8 s  ClockTime = 4 s

Time = 40

smoothSolver:  Solving for Ux, Initial residual = 0.00325823, Final residual = 1.35095e-05, No Iterations 8
smoothSolver:  Solving for Uy, Initial residual = 0.00194768, Final residual = 9.48423e-06, No Iterations 8
GAMG:  Solving for p, Initial residual = 0.00425827, Final residual = 2.16485e-05, No Iterations 5
time step continuity errors : sum local = 6.02656e-06, global = 1.01767e-16, cumulative = 6.47738e-16
smoothSolver:  Solving for nuTilda, Initial residual = 0.00412316, Final residual = 1.98734e-05, No Iterations 8
ExecutionTime = 3.89 s  ClockTime = 4 s

forces wings output:
    sum of forces:
        pressure : (1.16403 8.28066 1.27593e-19)
        viscous  : (0.422258 0.0126948 -4.00735e-22)
        porous   : (0 0 0)
    sum of moments:
        pressure : (-0.414033 0.0582015 4.76883)
        viscous  : (-0.000634738 0.0211129 -0.0372304)
        porous   : (0 0 0)

Time = 41

smoothSolver:  Solving for Ux, Initial residual = 0.00324869, Final residual = 1.33943e-05, No Iterations 8
smoothSolver:  Solving for Uy, Initial residual = 0.00192336, Final residual = 9.43753e-06, No Iterations 8
GAMG:  Solving for p, Initial residual = 0.00387943, Final residual = 1.54957e-05, No Iterations 5
time step continuity errors : sum local = 4.31998e-06, global = 1.9671e-18, cumulative = 6.49706e-16
smoothSolver:  Solving for nuTilda, Initial residual = 0.00398949, Final residual = 1.92283e-05, No Iterations 8
bounding nuTilda, min: -0.000107479 max: 0.405588 average: 0.0753
ExecutionTime = 3.98 s  ClockTime = 4 s

Time = 42

smoothSolver:  Solving for Ux, Initial residual = 0.00325849, Final residual = 1.35209e-05, No Iterations 8
smoothSolver:  Solving for Uy, Initial residual = 0.00176383, Final residual = 8.77515e-06, No Iterations 8
GAMG:  Solving for p, Initial residual = 0.00345272, Final residual = 1.69464e-05, No Iterations 5
time step continuity errors : sum local = 4.73275e-06, global = -1.25771e-16, cumulative = 5.23934e-16
smoothSolver:  Solving for nuTilda, Initial residual = 0.00385852, Final residual = 1.85855e-05, No Iterations 8
ExecutionTime = 4.07 s  ClockTime = 4 s

Time = 43

smoothSolver:  Solving for Ux, Initial residual = 0.00322092, Final residual = 1.3467e-05, No Iterations 8
smoothSolver:  Solving for Uy, Initial residual = 0.00169148, Final residual = 8.41096e-06, No Iterations 8
GAMG:  Solving for p, Initial residual = 0.00311816, Final residual = 1.99488e-05, No Iterations 5
time step continuity errors : sum local = 5.59839e-06, global = -5.98641e-17, cumulative = 4.6407e-16
smoothSolver:  Solving for nuTilda, Initial residual = 0.00373673, Final residual = 1.7996e-05, No Iterations 8
ExecutionTime = 4.16 s  ClockTime = 4 s

Time = 44

smoothSolver:  Solving for Ux, Initial residual = 0.00313351, Final residual = 1.3156e-05, No Iterations 8
smoothSolver:  Solving for Uy, Initial residual = 0.00170319, Final residual = 8.40792e-06, No Iterations 8
GAMG:  Solving for p, Initial residual = 0.00291918, Final residual = 2.26424e-05, No Iterations 5
time step continuity errors : sum local = 6.38264e-06, global = 2.18726e-16, cumulative = 6.82796e-16
smoothSolver:  Solving for nuTilda, Initial residual = 0.00361719, Final residual = 1.74184e-05, No Iterations 8
bounding nuTilda, min: -0.000138716 max: 0.405586 average: 0.0733266
ExecutionTime = 4.25 s  ClockTime = 4 s

Time = 45

smoothSolver:  Solving for Ux, Initial residual = 0.00303872, Final residual = 1.27477e-05, No Iterations 8
smoothSolver:  Solving for Uy, Initial residual = 0.00170675, Final residual = 8.46049e-06, No Iterations 8
GAMG:  Solving for p, Initial residual = 0.00263493, Final residual = 1.96229e-05, No Iterations 5
time step continuity errors : sum local = 5.50335e-06, global = 2.23363e-16, cumulative = 9.06159e-16
smoothSolver:  Solving for nuTilda, Initial residual = 0.0035048, Final residual = 1.68791e-05, No Iterations 8
ExecutionTime = 4.34 s  ClockTime = 4 s

forces wings output:
    sum of forces:
        pressure : (1.08683 8.26518 1.27687e-19)
        viscous  : (0.408838 0.0121176 -5.59831e-22)
        porous   : (0 0 0)
    sum of moments:
        pressure : (-0.413259 0.0543414 4.62066)
        viscous  : (-0.000605882 0.0204419 -0.0360777)
        porous   : (0 0 0)

Time = 46

smoothSolver:  Solving for Ux, Initial residual = 0.00297109, Final residual = 1.24395e-05, No Iterations 8
smoothSolver:  Solving for Uy, Initial residual = 0.00170111, Final residual = 8.44065e-06, No Iterations 8
GAMG:  Solving for p, Initial residual = 0.00244134, Final residual = 1.63087e-05, No Iterations 5
time step continuity errors : sum local = 4.56382e-06, global = -1.19733e-16, cumulative = 7.86426e-16
smoothSolver:  Solving for nuTilda, Initial residual = 0.00339677, Final residual = 1.63566e-05, No Iterations 8
ExecutionTime = 4.43 s  ClockTime = 5 s

Time = 47

smoothSolver:  Solving for Ux, Initial residual = 0.00293584, Final residual = 1.22791e-05, No Iterations 8
smoothSolver:  Solving for Uy, Initial residual = 0.00165368, Final residual = 8.23494e-06, No Iterations 8
GAMG:  Solving for p, Initial residual = 0.00236317, Final residual = 9.77786e-06, No Iterations 5
time step continuity errors : sum local = 2.70219e-06, global = -4.53801e-17, cumulative = 7.41046e-16
smoothSolver:  Solving for nuTilda, Initial residual = 0.00329443, Final residual = 1.5862e-05, No Iterations 8
bounding nuTilda, min: -0.000158163 max: 0.405573 average: 0.071468
ExecutionTime = 4.52 s  ClockTime = 5 s

Time = 48

smoothSolver:  Solving for Ux, Initial residual = 0.00290998, Final residual = 1.21781e-05, No Iterations 8
smoothSolver:  Solving for Uy, Initial residual = 0.00159248, Final residual = 7.98213e-06, No Iterations 8
GAMG:  Solving for p, Initial residual = 0.00217495, Final residual = 1.72898e-05, No Iterations 4
time step continuity errors : sum local = 4.83522e-06, global = 8.34907e-17, cumulative = 8.24536e-16
smoothSolver:  Solving for nuTilda, Initial residual = 0.0031956, Final residual = 1.53857e-05, No Iterations 8
ExecutionTime = 4.6 s  ClockTime = 5 s

Time = 49

smoothSolver:  Solving for Ux, Initial residual = 0.00286977, Final residual = 1.20122e-05, No Iterations 8
smoothSolver:  Solving for Uy, Initial residual = 0.00158239, Final residual = 7.88882e-06, No Iterations 8
GAMG:  Solving for p, Initial residual = 0.00202779, Final residual = 1.82052e-05, No Iterations 4
time step continuity errors : sum local = 5.06912e-06, global = -2.84849e-17, cumulative = 7.96051e-16
smoothSolver:  Solving for nuTilda, Initial residual = 0.00310169, Final residual = 1.49306e-05, No Iterations 8
ExecutionTime = 4.69 s  ClockTime = 5 s

Time = 50

smoothSolver:  Solving for Ux, Initial residual = 0.00281762, Final residual = 1.17811e-05, No Iterations 8
smoothSolver:  Solving for Uy, Initial residual = 0.00158622, Final residual = 7.8869e-06, No Iterations 8
GAMG:  Solving for p, Initial residual = 0.00196001, Final residual = 1.38757e-05, No Iterations 5
time step continuity errors : sum local = 3.87825e-06, global = -2.26543e-16, cumulative = 5.69508e-16
smoothSolver:  Solving for nuTilda, Initial residual = 0.00301194, Final residual = 1.44954e-05, No Iterations 8
bounding nuTilda, min: -0.000166956 max: 0.40557 average: 0.0697122
ExecutionTime = 4.78 s  ClockTime = 5 s

forces wings output:
    sum of forces:
        pressure : (1.11051 8.28305 1.22572e-19)
        viscous  : (0.396399 0.0115147 -4.30115e-22)
        porous   : (0 0 0)
    sum of moments:
        pressure : (-0.414152 0.0555255 4.67024)
        viscous  : (-0.000575735 0.01982 -0.0350093)
        porous   : (0 0 0)

Time = 51

smoothSolver:  Solving for Ux, Initial residual = 0.00276843, Final residual = 1.15577e-05, No Iterations 8
smoothSolver:  Solving for Uy, Initial residual = 0.00159173, Final residual = 7.89667e-06, No Iterations 8
GAMG:  Solving for p, Initial residual = 0.00184197, Final residual = 1.25039e-05, No Iterations 5
time step continuity errors : sum local = 3.50005e-06, global = -1.13861e-16, cumulative = 4.55647e-16
smoothSolver:  Solving for nuTilda, Initial residual = 0.00292632, Final residual = 1.4078e-05, No Iterations 8
ExecutionTime = 4.87 s  ClockTime = 5 s

Time = 52

smoothSolver:  Solving for Ux, Initial residual = 0.00272844, Final residual = 1.13827e-05, No Iterations 8
smoothSolver:  Solving for Uy, Initial residual = 0.00158559, Final residual = 7.84862e-06, No Iterations 8
GAMG:  Solving for p, Initial residual = 0.00175554, Final residual = 9.37779e-06, No Iterations 5
time step continuity errors : sum local = 2.61341e-06, global = -1.92425e-19, cumulative = 4.55455e-16
smoothSolver:  Solving for nuTilda, Initial residual = 0.00284487, Final residual = 1.36789e-05, No Iterations 8
ExecutionTime = 4.96 s  ClockTime = 5 s

Time = 53

smoothSolver:  Solving for Ux, Initial residual = 0.00269583, Final residual = 1.12409e-05, No Iterations 8
smoothSolver:  Solving for Uy, Initial residual = 0.00156581, Final residual = 7.74437e-06, No Iterations 8
GAMG:  Solving for p, Initial residual = 0.0017208, Final residual = 1.0286e-05, No Iterations 5
time step continuity errors : sum local = 2.87316e-06, global = 9.64846e-17, cumulative = 5.51939e-16
smoothSolver:  Solving for nuTilda, Initial residual = 0.00276656, Final residual = 1.32945e-05, No Iterations 8
bounding nuTilda, min: -0.000169022 max: 0.405578 average: 0.0680502
ExecutionTime = 5.05 s  ClockTime = 5 s

Time = 54

smoothSolver:  Solving for Ux, Initial residual = 0.00266403, Final residual = 1.10974e-05, No Iterations 8
smoothSolver:  Solving for Uy, Initial residual = 0.00154844, Final residual = 7.64523e-06, No Iterations 8
GAMG:  Solving for p, Initial residual = 0.00165921, Final residual = 1.14359e-05, No Iterations 5
time step continuity errors : sum local = 3.19242e-06, global = -3.90878e-17, cumulative = 5.12851e-16
smoothSolver:  Solving for nuTilda, Initial residual = 0.00269179, Final residual = 1.29259e-05, No Iterations 8
ExecutionTime = 5.13 s  ClockTime = 5 s

Time = 55

smoothSolver:  Solving for Ux, Initial residual = 0.00262895, Final residual = 1.09382e-05, No Iterations 8
smoothSolver:  Solving for Uy, Initial residual = 0.00154467, Final residual = 7.57787e-06, No Iterations 8
GAMG:  Solving for p, Initial residual = 0.00159108, Final residual = 1.09146e-05, No Iterations 5
time step continuity errors : sum local = 3.04303e-06, global = -6.99062e-17, cumulative = 4.42945e-16
smoothSolver:  Solving for nuTilda, Initial residual = 0.00261987, Final residual = 1.257e-05, No Iterations 8
ExecutionTime = 5.22 s  ClockTime = 5 s

forces wings output:
    sum of forces:
        pressure : (1.12365 8.4248 1.134e-19)
        viscous  : (0.384381 0.0109665 -1.95641e-22)
        porous   : (0 0 0)
    sum of moments:
        pressure : (-0.42124 0.0561823 4.73927)
        viscous  : (-0.000548326 0.0192191 -0.0339646)
        porous   : (0 0 0)

Time = 56

smoothSolver:  Solving for Ux, Initial residual = 0.00259224, Final residual = 1.07707e-05, No Iterations 8
smoothSolver:  Solving for Uy, Initial residual = 0.00154416, Final residual = 7.54596e-06, No Iterations 8
GAMG:  Solving for p, Initial residual = 0.00154149, Final residual = 1.02396e-05, No Iterations 5
time step continuity errors : sum local = 2.85738e-06, global = 6.88877e-17, cumulative = 5.11833e-16
smoothSolver:  Solving for nuTilda, Initial residual = 0.00255103, Final residual = 1.22286e-05, No Iterations 8
bounding nuTilda, min: -0.000164416 max: 0.405583 average: 0.0664746
ExecutionTime = 5.3 s  ClockTime = 5 s

Time = 57

smoothSolver:  Solving for Ux, Initial residual = 0.00255897, Final residual = 1.06198e-05, No Iterations 8
smoothSolver:  Solving for Uy, Initial residual = 0.0015402, Final residual = 7.51814e-06, No Iterations 8
GAMG:  Solving for p, Initial residual = 0.00150474, Final residual = 1.14808e-05, No Iterations 5
time step continuity errors : sum local = 3.19562e-06, global = -1.22799e-16, cumulative = 3.89034e-16
smoothSolver:  Solving for nuTilda, Initial residual = 0.00248471, Final residual = 1.18988e-05, No Iterations 8
ExecutionTime = 5.39 s  ClockTime = 6 s

Time = 58

smoothSolver:  Solving for Ux, Initial residual = 0.00252999, Final residual = 1.04916e-05, No Iterations 8
smoothSolver:  Solving for Uy, Initial residual = 0.00153314, Final residual = 7.46836e-06, No Iterations 8
GAMG:  Solving for p, Initial residual = 0.00147122, Final residual = 1.17398e-05, No Iterations 5
time step continuity errors : sum local = 3.26934e-06, global = -4.11144e-16, cumulative = -2.21098e-17
smoothSolver:  Solving for nuTilda, Initial residual = 0.00242107, Final residual = 1.15821e-05, No Iterations 8
ExecutionTime = 5.49 s  ClockTime = 6 s

Time = 59

smoothSolver:  Solving for Ux, Initial residual = 0.00250288, Final residual = 1.0374e-05, No Iterations 8
smoothSolver:  Solving for Uy, Initial residual = 0.00152529, Final residual = 7.40461e-06, No Iterations 8
GAMG:  Solving for p, Initial residual = 0.0014436, Final residual = 1.0847e-05, No Iterations 5
time step continuity errors : sum local = 3.01788e-06, global = 1.80845e-16, cumulative = 1.58736e-16
smoothSolver:  Solving for nuTilda, Initial residual = 0.00235959, Final residual = 1.1276e-05, No Iterations 8
bounding nuTilda, min: -0.000155675 max: 0.405586 average: 0.0649782
ExecutionTime = 5.57 s  ClockTime = 6 s

Time = 60

smoothSolver:  Solving for Ux, Initial residual = 0.00247509, Final residual = 1.02498e-05, No Iterations 8
smoothSolver:  Solving for Uy, Initial residual = 0.00151826, Final residual = 7.34529e-06, No Iterations 8
GAMG:  Solving for p, Initial residual = 0.00142781, Final residual = 9.69172e-06, No Iterations 5
time step continuity errors : sum local = 2.69559e-06, global = 2.19346e-17, cumulative = 1.8067e-16
smoothSolver:  Solving for nuTilda, Initial residual = 0.0023005, Final residual = 1.09818e-05, No Iterations 8
ExecutionTime = 5.66 s  ClockTime = 6 s

forces wings output:
    sum of forces:
        pressure : (1.12872 8.53918 1.05983e-19)
        viscous  : (0.372791 0.0104296 2.87613e-22)
        porous   : (0 0 0)
    sum of moments:
        pressure : (-0.426959 0.0564358 4.78471)
        viscous  : (-0.000521479 0.0186395 -0.0329613)
        porous   : (0 0 0)

Time = 61

smoothSolver:  Solving for Ux, Initial residual = 0.00244671, Final residual = 1.01198e-05, No Iterations 8
smoothSolver:  Solving for Uy, Initial residual = 0.00151494, Final residual = 7.29704e-06, No Iterations 8
GAMG:  Solving for p, Initial residual = 0.0014, Final residual = 9.89518e-06, No Iterations 5
time step continuity errors : sum local = 2.75306e-06, global = -8.96637e-17, cumulative = 9.10066e-17
smoothSolver:  Solving for nuTilda, Initial residual = 0.00224344, Final residual = 1.06979e-05, No Iterations 8
ExecutionTime = 5.75 s  ClockTime = 6 s

Time = 62

smoothSolver:  Solving for Ux, Initial residual = 0.00241854, Final residual = 9.99039e-06, No Iterations 8
smoothSolver:  Solving for Uy, Initial residual = 0.00151245, Final residual = 7.25632e-06, No Iterations 8
GAMG:  Solving for p, Initial residual = 0.00136357, Final residual = 1.05007e-05, No Iterations 5
time step continuity errors : sum local = 2.93013e-06, global = 1.67074e-16, cumulative = 2.58081e-16
smoothSolver:  Solving for nuTilda, Initial residual = 0.00218844, Final residual = 1.0425e-05, No Iterations 8
bounding nuTilda, min: -0.000142839 max: 0.405585 average: 0.0635551
ExecutionTime = 5.84 s  ClockTime = 6 s

Time = 63

smoothSolver:  Solving for Ux, Initial residual = 0.00239241, Final residual = 9.87134e-06, No Iterations 8
smoothSolver:  Solving for Uy, Initial residual = 0.00150769, Final residual = 7.21501e-06, No Iterations 8
GAMG:  Solving for p, Initial residual = 0.00134198, Final residual = 1.06644e-05, No Iterations 5
time step continuity errors : sum local = 2.96399e-06, global = 1.26136e-16, cumulative = 3.84217e-16
smoothSolver:  Solving for nuTilda, Initial residual = 0.00213538, Final residual = 1.01611e-05, No Iterations 8
ExecutionTime = 5.93 s  ClockTime = 6 s

Time = 64

smoothSolver:  Solving for Ux, Initial residual = 0.00236893, Final residual = 9.76317e-06, No Iterations 8
smoothSolver:  Solving for Uy, Initial residual = 0.00150133, Final residual = 7.16621e-06, No Iterations 8
GAMG:  Solving for p, Initial residual = 0.00132404, Final residual = 1.05778e-05, No Iterations 5
time step continuity errors : sum local = 2.94037e-06, global = 8.35422e-17, cumulative = 4.67759e-16
smoothSolver:  Solving for nuTilda, Initial residual = 0.00208428, Final residual = 9.90681e-06, No Iterations 8
ExecutionTime = 6.02 s  ClockTime = 6 s

Time = 65

smoothSolver:  Solving for Ux, Initial residual = 0.00234703, Final residual = 9.66115e-06, No Iterations 8
smoothSolver:  Solving for Uy, Initial residual = 0.00149469, Final residual = 7.11261e-06, No Iterations 8
GAMG:  Solving for p, Initial residual = 0.00129994, Final residual = 9.89405e-06, No Iterations 5
time step continuity errors : sum local = 2.75214e-06, global = 2.2719e-16, cumulative = 6.94949e-16
smoothSolver:  Solving for nuTilda, Initial residual = 0.00203491, Final residual = 9.66056e-06, No Iterations 8
bounding nuTilda, min: -0.000127025 max: 0.405582 average: 0.0621999
ExecutionTime = 6.11 s  ClockTime = 6 s

forces wings output:
    sum of forces:
        pressure : (1.14384 8.61234 1.00876e-19)
        viscous  : (0.361777 0.00995151 3.60404e-22)
        porous   : (0 0 0)
    sum of moments:
        pressure : (-0.430617 0.0571918 4.83581)
        viscous  : (-0.000497576 0.0180889 -0.0320064)
        porous   : (0 0 0)

Time = 66

smoothSolver:  Solving for Ux, Initial residual = 0.00232501, Final residual = 9.55617e-06, No Iterations 8
smoothSolver:  Solving for Uy, Initial residual = 0.00148909, Final residual = 7.06261e-06, No Iterations 8
GAMG:  Solving for p, Initial residual = 0.00128773, Final residual = 9.19148e-06, No Iterations 5
time step continuity errors : sum local = 2.55717e-06, global = -4.17036e-18, cumulative = 6.90779e-16
smoothSolver:  Solving for nuTilda, Initial residual = 0.00198723, Final residual = 9.42255e-06, No Iterations 8
ExecutionTime = 6.21 s  ClockTime = 6 s

Time = 67

smoothSolver:  Solving for Ux, Initial residual = 0.00230261, Final residual = 9.44695e-06, No Iterations 8
smoothSolver:  Solving for Uy, Initial residual = 0.00148515, Final residual = 7.01905e-06, No Iterations 8
GAMG:  Solving for p, Initial residual = 0.0012836, Final residual = 9.05312e-06, No Iterations 5
time step continuity errors : sum local = 2.51967e-06, global = -1.22243e-16, cumulative = 5.68536e-16
smoothSolver:  Solving for nuTilda, Initial residual = 0.00194104, Final residual = 9.19152e-06, No Iterations 8
ExecutionTime = 6.29 s  ClockTime = 6 s

Time = 68

smoothSolver:  Solving for Ux, Initial residual = 0.0022805, Final residual = 9.33835e-06, No Iterations 8
smoothSolver:  Solving for Uy, Initial residual = 0.00148174, Final residual = 6.97833e-06, No Iterations 8
GAMG:  Solving for p, Initial residual = 0.00126564, Final residual = 9.07264e-06, No Iterations 5
time step continuity errors : sum local = 2.5261e-06, global = -5.62151e-17, cumulative = 5.12321e-16
smoothSolver:  Solving for nuTilda, Initial residual = 0.00189622, Final residual = 8.96718e-06, No Iterations 8
bounding nuTilda, min: -0.000108075 max: 0.405577 average: 0.0609081
ExecutionTime = 6.38 s  ClockTime = 6 s

Time = 69

smoothSolver:  Solving for Ux, Initial residual = 0.0022594, Final residual = 9.23738e-06, No Iterations 8
smoothSolver:  Solving for Uy, Initial residual = 0.00147752, Final residual = 6.93547e-06, No Iterations 8
GAMG:  Solving for p, Initial residual = 0.00125004, Final residual = 8.96057e-06, No Iterations 5
time step continuity errors : sum local = 2.49499e-06, global = -2.96357e-16, cumulative = 2.15964e-16
smoothSolver:  Solving for nuTilda, Initial residual = 0.00185281, Final residual = 8.74923e-06, No Iterations 8
ExecutionTime = 6.46 s  ClockTime = 7 s

Time = 70

smoothSolver:  Solving for Ux, Initial residual = 0.00223985, Final residual = 9.14385e-06, No Iterations 8
smoothSolver:  Solving for Uy, Initial residual = 0.00147182, Final residual = 6.88836e-06, No Iterations 8
GAMG:  Solving for p, Initial residual = 0.00124069, Final residual = 8.96021e-06, No Iterations 5
time step continuity errors : sum local = 2.49394e-06, global = 1.7378e-16, cumulative = 3.89744e-16
smoothSolver:  Solving for nuTilda, Initial residual = 0.00181067, Final residual = 8.53844e-06, No Iterations 8
ExecutionTime = 6.55 s  ClockTime = 7 s

forces wings output:
    sum of forces:
        pressure : (1.15906 8.69685 9.6647e-20)
        viscous  : (0.351259 0.0094955 4.20036e-22)
        porous   : (0 0 0)
    sum of moments:
        pressure : (-0.434842 0.0579532 4.8907)
        viscous  : (-0.000474775 0.0175629 -0.0310914)
        porous   : (0 0 0)

Time = 71

smoothSolver:  Solving for Ux, Initial residual = 0.00222144, Final residual = 9.05525e-06, No Iterations 8
smoothSolver:  Solving for Uy, Initial residual = 0.00146525, Final residual = 6.83818e-06, No Iterations 8
GAMG:  Solving for p, Initial residual = 0.00122414, Final residual = 8.74845e-06, No Iterations 5
time step continuity errors : sum local = 2.43637e-06, global = 1.0188e-16, cumulative = 4.91624e-16
smoothSolver:  Solving for nuTilda, Initial residual = 0.00176985, Final residual = 8.33422e-06, No Iterations 8
bounding nuTilda, min: -8.72203e-05 max: 0.405571 average: 0.0596753
ExecutionTime = 6.64 s  ClockTime = 7 s

Time = 72

smoothSolver:  Solving for Ux, Initial residual = 0.00220344, Final residual = 8.96646e-06, No Iterations 8
smoothSolver:  Solving for Uy, Initial residual = 0.00145913, Final residual = 6.78935e-06, No Iterations 8
GAMG:  Solving for p, Initial residual = 0.00121208, Final residual = 8.71444e-06, No Iterations 5
time step continuity errors : sum local = 2.42746e-06, global = 1.44943e-16, cumulative = 6.36568e-16
smoothSolver:  Solving for nuTilda, Initial residual = 0.00173029, Final residual = 8.13669e-06, No Iterations 8
ExecutionTime = 6.74 s  ClockTime = 7 s

Time = 73

smoothSolver:  Solving for Ux, Initial residual = 0.00218554, Final residual = 8.87645e-06, No Iterations 8
smoothSolver:  Solving for Uy, Initial residual = 0.00145399, Final residual = 6.74438e-06, No Iterations 8
GAMG:  Solving for p, Initial residual = 0.00120761, Final residual = 8.75826e-06, No Iterations 5
time step continuity errors : sum local = 2.43996e-06, global = 1.76078e-16, cumulative = 8.12645e-16
smoothSolver:  Solving for nuTilda, Initial residual = 0.00169195, Final residual = 7.94532e-06, No Iterations 8
ExecutionTime = 6.82 s  ClockTime = 7 s

Time = 74

smoothSolver:  Solving for Ux, Initial residual = 0.0021678, Final residual = 8.78648e-06, No Iterations 8
smoothSolver:  Solving for Uy, Initial residual = 0.00144923, Final residual = 6.70217e-06, No Iterations 8
GAMG:  Solving for p, Initial residual = 0.00119641, Final residual = 8.57785e-06, No Iterations 5
time step continuity errors : sum local = 2.39093e-06, global = 1.68128e-16, cumulative = 9.80773e-16
smoothSolver:  Solving for nuTilda, Initial residual = 0.00165474, Final residual = 7.75963e-06, No Iterations 8
bounding nuTilda, min: -6.49881e-05 max: 0.405566 average: 0.0584977
ExecutionTime = 6.91 s  ClockTime = 7 s

Time = 75

smoothSolver:  Solving for Ux, Initial residual = 0.00215065, Final residual = 8.69992e-06, No Iterations 8
smoothSolver:  Solving for Uy, Initial residual = 0.00144436, Final residual = 6.65941e-06, No Iterations 8
GAMG:  Solving for p, Initial residual = 0.00118819, Final residual = 8.53943e-06, No Iterations 5
time step continuity errors : sum local = 2.38073e-06, global = -4.90338e-18, cumulative = 9.7587e-16
smoothSolver:  Solving for nuTilda, Initial residual = 0.00161861, Final residual = 7.57911e-06, No Iterations 8
ExecutionTime = 7 s  ClockTime = 7 s

forces wings output:
    sum of forces:
        pressure : (1.17291 8.79422 9.27105e-20)
        viscous  : (0.341257 0.0090851 4.36147e-22)
        porous   : (0 0 0)
    sum of moments:
        pressure : (-0.439711 0.0586453 4.94706)
        viscous  : (-0.000454255 0.0170629 -0.0302202)
        porous   : (0 0 0)

Time = 76

smoothSolver:  Solving for Ux, Initial residual = 0.00213416, Final residual = 8.61738e-06, No Iterations 8
smoothSolver:  Solving for Uy, Initial residual = 0.00143885, Final residual = 6.614e-06, No Iterations 8
GAMG:  Solving for p, Initial residual = 0.00118412, Final residual = 8.80656e-06, No Iterations 5
time step continuity errors : sum local = 2.46059e-06, global = -2.27472e-16, cumulative = 7.48398e-16
smoothSolver:  Solving for nuTilda, Initial residual = 0.00158353, Final residual = 7.40427e-06, No Iterations 8
ExecutionTime = 7.09 s  ClockTime = 7 s

Time = 77

smoothSolver:  Solving for Ux, Initial residual = 0.00211831, Final residual = 8.53783e-06, No Iterations 8
smoothSolver:  Solving for Uy, Initial residual = 0.00143253, Final residual = 6.56696e-06, No Iterations 8
GAMG:  Solving for p, Initial residual = 0.00117377, Final residual = 9.39086e-06, No Iterations 5
time step continuity errors : sum local = 2.61924e-06, global = 1.33047e-16, cumulative = 8.81445e-16
smoothSolver:  Solving for nuTilda, Initial residual = 0.0015495, Final residual = 7.23509e-06, No Iterations 8
bounding nuTilda, min: -4.29214e-05 max: 0.405559 average: 0.0573719
ExecutionTime = 7.18 s  ClockTime = 7 s

Time = 78

smoothSolver:  Solving for Ux, Initial residual = 0.002103, Final residual = 8.45998e-06, No Iterations 8
smoothSolver:  Solving for Uy, Initial residual = 0.00142608, Final residual = 6.52006e-06, No Iterations 8
GAMG:  Solving for p, Initial residual = 0.0011673, Final residual = 9.08497e-06, No Iterations 5
time step continuity errors : sum local = 2.53442e-06, global = 3.34322e-17, cumulative = 9.14877e-16
smoothSolver:  Solving for nuTilda, Initial residual = 0.00151649, Final residual = 7.07147e-06, No Iterations 8
ExecutionTime = 7.27 s  ClockTime = 7 s

Time = 79

smoothSolver:  Solving for Ux, Initial residual = 0.00208791, Final residual = 8.383e-06, No Iterations 8
smoothSolver:  Solving for Uy, Initial residual = 0.00141998, Final residual = 6.47552e-06, No Iterations 8
GAMG:  Solving for p, Initial residual = 0.00116705, Final residual = 8.78319e-06, No Iterations 5
time step continuity errors : sum local = 2.45476e-06, global = 1.1427e-16, cumulative = 1.02915e-15
smoothSolver:  Solving for nuTilda, Initial residual = 0.00148448, Final residual = 6.91301e-06, No Iterations 8
ExecutionTime = 7.35 s  ClockTime = 7 s

Time = 80

smoothSolver:  Solving for Ux, Initial residual = 0.00207281, Final residual = 8.30622e-06, No Iterations 8
smoothSolver:  Solving for Uy, Initial residual = 0.00141407, Final residual = 6.4327e-06, No Iterations 8
GAMG:  Solving for p, Initial residual = 0.00115964, Final residual = 9.2377e-06, No Iterations 5
time step continuity errors : sum local = 2.57872e-06, global = -6.69091e-17, cumulative = 9.62238e-16
smoothSolver:  Solving for nuTilda, Initial residual = 0.00145336, Final residual = 6.75927e-06, No Iterations 8
bounding nuTilda, min: -2.07686e-05 max: 0.405554 average: 0.0562944
ExecutionTime = 7.44 s  ClockTime = 8 s

forces wings output:
    sum of forces:
        pressure : (1.18752 8.89514 8.98845e-20)
        viscous  : (0.331747 0.00870658 5.81277e-22)
        porous   : (0 0 0)
    sum of moments:
        pressure : (-0.444757 0.0593759 5.00597)
        viscous  : (-0.000435329 0.0165873 -0.0293892)
        porous   : (0 0 0)

Time = 81

smoothSolver:  Solving for Ux, Initial residual = 0.00205792, Final residual = 8.23054e-06, No Iterations 8
smoothSolver:  Solving for Uy, Initial residual = 0.0014082, Final residual = 6.38988e-06, No Iterations 8
GAMG:  Solving for p, Initial residual = 0.0011558, Final residual = 8.8826e-06, No Iterations 5
time step continuity errors : sum local = 2.47985e-06, global = -5.84761e-17, cumulative = 9.03762e-16
smoothSolver:  Solving for nuTilda, Initial residual = 0.0014231, Final residual = 6.6098e-06, No Iterations 8
ExecutionTime = 7.54 s  ClockTime = 8 s

Time = 82

smoothSolver:  Solving for Ux, Initial residual = 0.00204323, Final residual = 8.15656e-06, No Iterations 8
smoothSolver:  Solving for Uy, Initial residual = 0.00140213, Final residual = 6.34669e-06, No Iterations 8
GAMG:  Solving for p, Initial residual = 0.00115661, Final residual = 8.76586e-06, No Iterations 5
time step continuity errors : sum local = 2.45136e-06, global = 7.18432e-17, cumulative = 9.75605e-16
smoothSolver:  Solving for nuTilda, Initial residual = 0.00139363, Final residual = 6.46444e-06, No Iterations 8
ExecutionTime = 7.62 s  ClockTime = 8 s

Time = 83

smoothSolver:  Solving for Ux, Initial residual = 0.00202878, Final residual = 8.08456e-06, No Iterations 8
smoothSolver:  Solving for Uy, Initial residual = 0.00139562, Final residual = 6.30327e-06, No Iterations 8
GAMG:  Solving for p, Initial residual = 0.00115104, Final residual = 9.25952e-06, No Iterations 5
time step continuity errors : sum local = 2.58647e-06, global = 1.87547e-17, cumulative = 9.9436e-16
smoothSolver:  Solving for nuTilda, Initial residual = 0.00136497, Final residual = 6.32305e-06, No Iterations 8
ExecutionTime = 7.71 s  ClockTime = 8 s

Time = 84

smoothSolver:  Solving for Ux, Initial residual = 0.00201467, Final residual = 8.01417e-06, No Iterations 8
smoothSolver:  Solving for Uy, Initial residual = 0.0013889, Final residual = 6.25922e-06, No Iterations 8
GAMG:  Solving for p, Initial residual = 0.00114719, Final residual = 8.84746e-06, No Iterations 5
time step continuity errors : sum local = 2.47739e-06, global = 1.87249e-16, cumulative = 1.18161e-15
smoothSolver:  Solving for nuTilda, Initial residual = 0.00133711, Final residual = 6.18564e-06, No Iterations 8
bounding nuTilda, min: -6.09171e-05 max: 0.405545 average: 0.0549283
ExecutionTime = 7.8 s  ClockTime = 8 s

Time = 85

smoothSolver:  Solving for Ux, Initial residual = 0.00200066, Final residual = 7.94458e-06, No Iterations 8
smoothSolver:  Solving for Uy, Initial residual = 0.00138217, Final residual = 6.21613e-06, No Iterations 8
GAMG:  Solving for p, Initial residual = 0.00114336, Final residual = 9.43644e-06, No Iterations 5
time step continuity errors : sum local = 2.63751e-06, global = 1.07565e-16, cumulative = 1.28917e-15
smoothSolver:  Solving for nuTilda, Initial residual = 0.00131004, Final residual = 6.052e-06, No Iterations 8
ExecutionTime = 7.88 s  ClockTime = 8 s

forces wings output:
    sum of forces:
        pressure : (1.20092 8.99995 8.76218e-20)
        viscous  : (0.322792 0.00836341 8.21253e-22)
        porous   : (0 0 0)
    sum of moments:
        pressure : (-0.449998 0.0600458 5.06385)
        viscous  : (-0.000418171 0.0161396 -0.0286053)
        porous   : (0 0 0)

Time = 86

smoothSolver:  Solving for Ux, Initial residual = 0.00198681, Final residual = 7.87539e-06, No Iterations 8
smoothSolver:  Solving for Uy, Initial residual = 0.0013754, Final residual = 6.17289e-06, No Iterations 8
GAMG:  Solving for p, Initial residual = 0.00114443, Final residual = 9.09377e-06, No Iterations 5
time step continuity errors : sum local = 2.54571e-06, global = 3.05561e-17, cumulative = 1.31973e-15
smoothSolver:  Solving for nuTilda, Initial residual = 0.00128368, Final residual = 5.92194e-06, No Iterations 8
ExecutionTime = 7.97 s  ClockTime = 8 s

Time = 87

smoothSolver:  Solving for Ux, Initial residual = 0.00197281, Final residual = 7.80646e-06, No Iterations 8
smoothSolver:  Solving for Uy, Initial residual = 0.0013683, Final residual = 6.13032e-06, No Iterations 8
GAMG:  Solving for p, Initial residual = 0.001137, Final residual = 9.34396e-06, No Iterations 5
time step continuity errors : sum local = 2.61273e-06, global = 6.00741e-17, cumulative = 1.3798e-15
smoothSolver:  Solving for nuTilda, Initial residual = 0.00125803, Final residual = 5.79532e-06, No Iterations 8
ExecutionTime = 8.07 s  ClockTime = 8 s

Time = 88

smoothSolver:  Solving for Ux, Initial residual = 0.00195893, Final residual = 7.73826e-06, No Iterations 8
smoothSolver:  Solving for Uy, Initial residual = 0.00136118, Final residual = 6.08803e-06, No Iterations 8
GAMG:  Solving for p, Initial residual = 0.0011302, Final residual = 8.71002e-06, No Iterations 5
time step continuity errors : sum local = 2.43994e-06, global = 4.46735e-16, cumulative = 1.82654e-15
smoothSolver:  Solving for nuTilda, Initial residual = 0.00123305, Final residual = 5.67204e-06, No Iterations 8
bounding nuTilda, min: -1.76427e-05 max: 0.405537 average: 0.0536372
ExecutionTime = 8.16 s  ClockTime = 8 s

Time = 89

smoothSolver:  Solving for Ux, Initial residual = 0.00194504, Final residual = 7.67093e-06, No Iterations 8
smoothSolver:  Solving for Uy, Initial residual = 0.00135408, Final residual = 6.0465e-06, No Iterations 8
GAMG:  Solving for p, Initial residual = 0.00112416, Final residual = 9.14314e-06, No Iterations 5
time step continuity errors : sum local = 2.56439e-06, global = 2.62793e-17, cumulative = 1.85282e-15
smoothSolver:  Solving for nuTilda, Initial residual = 0.00120875, Final residual = 5.55202e-06, No Iterations 8
ExecutionTime = 8.24 s  ClockTime = 8 s

Time = 90

smoothSolver:  Solving for Ux, Initial residual = 0.00193133, Final residual = 7.6045e-06, No Iterations 8
smoothSolver:  Solving for Uy, Initial residual = 0.00134694, Final residual = 6.00495e-06, No Iterations 8
GAMG:  Solving for p, Initial residual = 0.00112322, Final residual = 9.8662e-06, No Iterations 5
time step continuity errors : sum local = 2.76057e-06, global = -1.58342e-16, cumulative = 1.69448e-15
smoothSolver:  Solving for nuTilda, Initial residual = 0.00118506, Final residual = 5.43514e-06, No Iterations 8
ExecutionTime = 8.34 s  ClockTime = 8 s

forces wings output:
    sum of forces:
        pressure : (1.21167 9.1097 8.59893e-20)
        viscous  : (0.314738 0.00804806 8.87032e-22)
        porous   : (0 0 0)
    sum of moments:
        pressure : (-0.455485 0.0605836 5.11838)
        viscous  : (-0.000402403 0.0157369 -0.0278985)
        porous   : (0 0 0)

Time = 91

smoothSolver:  Solving for Ux, Initial residual = 0.00191771, Final residual = 7.53874e-06, No Iterations 8
smoothSolver:  Solving for Uy, Initial residual = 0.00133922, Final residual = 5.96197e-06, No Iterations 8
GAMG:  Solving for p, Initial residual = 0.00111296, Final residual = 8.89543e-06, No Iterations 5
time step continuity errors : sum local = 2.4934e-06, global = -1.65004e-16, cumulative = 1.52947e-15
smoothSolver:  Solving for nuTilda, Initial residual = 0.0011619, Final residual = 5.32075e-06, No Iterations 8
ExecutionTime = 8.43 s  ClockTime = 9 s

Time = 92

smoothSolver:  Solving for Ux, Initial residual = 0.00190408, Final residual = 7.47342e-06, No Iterations 8
smoothSolver:  Solving for Uy, Initial residual = 0.0013313, Final residual = 5.91943e-06, No Iterations 8
GAMG:  Solving for p, Initial residual = 0.00110364, Final residual = 8.92885e-06, No Iterations 5
time step continuity errors : sum local = 2.50509e-06, global = -7.11362e-17, cumulative = 1.45834e-15
smoothSolver:  Solving for nuTilda, Initial residual = 0.00113925, Final residual = 5.20843e-06, No Iterations 8
ExecutionTime = 8.51 s  ClockTime = 9 s

Time = 93

smoothSolver:  Solving for Ux, Initial residual = 0.00189044, Final residual = 7.40792e-06, No Iterations 8
smoothSolver:  Solving for Uy, Initial residual = 0.00132335, Final residual = 5.87743e-06, No Iterations 8
GAMG:  Solving for p, Initial residual = 0.00109458, Final residual = 9.41041e-06, No Iterations 5
time step continuity errors : sum local = 2.63641e-06, global = -1.69096e-16, cumulative = 1.28924e-15
smoothSolver:  Solving for nuTilda, Initial residual = 0.00111722, Final residual = 5.09904e-06, No Iterations 8
ExecutionTime = 8.6 s  ClockTime = 9 s

Time = 94

smoothSolver:  Solving for Ux, Initial residual = 0.00187679, Final residual = 7.34272e-06, No Iterations 8
smoothSolver:  Solving for Uy, Initial residual = 0.00131533, Final residual = 5.83578e-06, No Iterations 8
GAMG:  Solving for p, Initial residual = 0.00108525, Final residual = 8.4362e-06, No Iterations 5
time step continuity errors : sum local = 2.36633e-06, global = 1.92979e-16, cumulative = 1.48222e-15
smoothSolver:  Solving for nuTilda, Initial residual = 0.00109562, Final residual = 4.99285e-06, No Iterations 8
bounding nuTilda, min: -1.50996e-05 max: 0.405523 average: 0.0518293
ExecutionTime = 8.69 s  ClockTime = 9 s

Time = 95

smoothSolver:  Solving for Ux, Initial residual = 0.00186309, Final residual = 7.27776e-06, No Iterations 8
smoothSolver:  Solving for Uy, Initial residual = 0.0013073, Final residual = 5.79525e-06, No Iterations 8
GAMG:  Solving for p, Initial residual = 0.00107578, Final residual = 8.65087e-06, No Iterations 5
time step continuity errors : sum local = 2.42878e-06, global = 1.98305e-17, cumulative = 1.50205e-15
smoothSolver:  Solving for nuTilda, Initial residual = 0.00107461, Final residual = 4.88963e-06, No Iterations 8
ExecutionTime = 8.78 s  ClockTime = 9 s

forces wings output:
    sum of forces:
        pressure : (1.21924 9.22513 8.52751e-20)
        viscous  : (0.307655 0.00776684 9.43687e-22)
        porous   : (0 0 0)
    sum of moments:
        pressure : (-0.461256 0.0609619 5.16879)
        viscous  : (-0.000388342 0.0153827 -0.0272782)
        porous   : (0 0 0)

Time = 96

smoothSolver:  Solving for Ux, Initial residual = 0.00184941, Final residual = 7.2127e-06, No Iterations 8
smoothSolver:  Solving for Uy, Initial residual = 0.00129931, Final residual = 5.75413e-06, No Iterations 8
GAMG:  Solving for p, Initial residual = 0.00107217, Final residual = 9.18452e-06, No Iterations 5
time step continuity errors : sum local = 2.58081e-06, global = 7.31908e-17, cumulative = 1.57524e-15
smoothSolver:  Solving for nuTilda, Initial residual = 0.00105412, Final residual = 4.7892e-06, No Iterations 8
ExecutionTime = 8.87 s  ClockTime = 9 s

Time = 97

smoothSolver:  Solving for Ux, Initial residual = 0.00183569, Final residual = 7.14791e-06, No Iterations 8
smoothSolver:  Solving for Uy, Initial residual = 0.0012908, Final residual = 5.71235e-06, No Iterations 8
GAMG:  Solving for p, Initial residual = 0.00105794, Final residual = 9.44185e-06, No Iterations 5
time step continuity errors : sum local = 2.64802e-06, global = 8.25056e-17, cumulative = 1.65775e-15
smoothSolver:  Solving for nuTilda, Initial residual = 0.00103414, Final residual = 4.69141e-06, No Iterations 8
ExecutionTime = 8.96 s  ClockTime = 9 s

Time = 98

smoothSolver:  Solving for Ux, Initial residual = 0.00182206, Final residual = 7.08354e-06, No Iterations 8
smoothSolver:  Solving for Uy, Initial residual = 0.00128208, Final residual = 5.66995e-06, No Iterations 8
GAMG:  Solving for p, Initial residual = 0.00104346, Final residual = 7.9333e-06, No Iterations 5
time step continuity errors : sum local = 2.22685e-06, global = 8.17811e-17, cumulative = 1.73953e-15
smoothSolver:  Solving for nuTilda, Initial residual = 0.00101466, Final residual = 4.59617e-06, No Iterations 8
ExecutionTime = 9.05 s  ClockTime = 9 s

Time = 99

smoothSolver:  Solving for Ux, Initial residual = 0.00180832, Final residual = 7.01955e-06, No Iterations 8
smoothSolver:  Solving for Uy, Initial residual = 0.00127302, Final residual = 5.62777e-06, No Iterations 8
GAMG:  Solving for p, Initial residual = 0.00103032, Final residual = 7.85295e-06, No Iterations 5
time step continuity errors : sum local = 2.20534e-06, global = 2.72344e-16, cumulative = 2.01187e-15
smoothSolver:  Solving for nuTilda, Initial residual = 0.00099567, Final residual = 4.50339e-06, No Iterations 8
ExecutionTime = 9.15 s  ClockTime = 9 s

Time = 100

smoothSolver:  Solving for Ux, Initial residual = 0.00179444, Final residual = 6.95484e-06, No Iterations 8
smoothSolver:  Solving for Uy, Initial residual = 0.00126398, Final residual = 5.58685e-06, No Iterations 8
GAMG:  Solving for p, Initial residual = 0.00101709, Final residual = 8.06832e-06, No Iterations 5
time step continuity errors : sum local = 2.26882e-06, global = -1.20373e-16, cumulative = 1.8915e-15
smoothSolver:  Solving for nuTilda, Initial residual = 0.000977131, Final residual = 4.41299e-06, No Iterations 8
ExecutionTime = 9.23 s  ClockTime = 9 s

forces wings output:
    sum of forces:
        pressure : (1.22447 9.33568 8.47412e-20)
        viscous  : (0.301209 0.00750861 1.147e-21)
        porous   : (0 0 0)
    sum of moments:
        pressure : (-0.466784 0.0612235 5.21332)
        viscous  : (-0.000375431 0.0150605 -0.0267095)
        porous   : (0 0 0)

Time = 101

smoothSolver:  Solving for Ux, Initial residual = 0.00178055, Final residual = 6.8892e-06, No Iterations 8
smoothSolver:  Solving for Uy, Initial residual = 0.00125507, Final residual = 5.54617e-06, No Iterations 8
GAMG:  Solving for p, Initial residual = 0.00100397, Final residual = 8.24291e-06, No Iterations 5
time step continuity errors : sum local = 2.32094e-06, global = -1.73047e-16, cumulative = 1.71845e-15
smoothSolver:  Solving for nuTilda, Initial residual = 0.000959033, Final residual = 4.32491e-06, No Iterations 8
ExecutionTime = 9.33 s  ClockTime = 9 s

Time = 102

smoothSolver:  Solving for Ux, Initial residual = 0.00176669, Final residual = 6.82364e-06, No Iterations 8
smoothSolver:  Solving for Uy, Initial residual = 0.00124614, Final residual = 5.50565e-06, No Iterations 8
GAMG:  Solving for p, Initial residual = 0.000990374, Final residual = 8.70907e-06, No Iterations 5
time step continuity errors : sum local = 2.44712e-06, global = 1.78181e-16, cumulative = 1.89663e-15
smoothSolver:  Solving for nuTilda, Initial residual = 0.000941358, Final residual = 4.23903e-06, No Iterations 8
ExecutionTime = 9.41 s  ClockTime = 10 s

Time = 103

smoothSolver:  Solving for Ux, Initial residual = 0.00175289, Final residual = 6.75838e-06, No Iterations 8
smoothSolver:  Solving for Uy, Initial residual = 0.00123705, Final residual = 5.46529e-06, No Iterations 8
GAMG:  Solving for p, Initial residual = 0.000976916, Final residual = 7.09538e-06, No Iterations 5
time step continuity errors : sum local = 1.99321e-06, global = 3.71905e-17, cumulative = 1.93382e-15
smoothSolver:  Solving for nuTilda, Initial residual = 0.000924067, Final residual = 4.15515e-06, No Iterations 8
ExecutionTime = 9.5 s  ClockTime = 10 s

Time = 104

smoothSolver:  Solving for Ux, Initial residual = 0.00173912, Final residual = 6.69356e-06, No Iterations 8
smoothSolver:  Solving for Uy, Initial residual = 0.00122772, Final residual = 5.42505e-06, No Iterations 8
GAMG:  Solving for p, Initial residual = 0.000963837, Final residual = 6.98159e-06, No Iterations 5
time step continuity errors : sum local = 1.96172e-06, global = 1.0082e-16, cumulative = 2.03464e-15
smoothSolver:  Solving for nuTilda, Initial residual = 0.000907129, Final residual = 4.07311e-06, No Iterations 8
ExecutionTime = 9.58 s  ClockTime = 10 s

Time = 105

smoothSolver:  Solving for Ux, Initial residual = 0.00172542, Final residual = 6.62769e-06, No Iterations 8
smoothSolver:  Solving for Uy, Initial residual = 0.00121841, Final residual = 5.38453e-06, No Iterations 8
GAMG:  Solving for p, Initial residual = 0.000950115, Final residual = 7.27858e-06, No Iterations 5
time step continuity errors : sum local = 2.04774e-06, global = 1.91915e-16, cumulative = 2.22656e-15
smoothSolver:  Solving for nuTilda, Initial residual = 0.00089059, Final residual = 3.99318e-06, No Iterations 8
ExecutionTime = 9.67 s  ClockTime = 10 s

forces wings output:
    sum of forces:
        pressure : (1.22504 9.44826 8.44788e-20)
        viscous  : (0.295201 0.00727755 1.4951e-21)
        porous   : (0 0 0)
    sum of moments:
        pressure : (-0.472413 0.061252 5.24983)
        viscous  : (-0.000363877 0.01476 -0.0261774)
        porous   : (0 0 0)

Time = 106

smoothSolver:  Solving for Ux, Initial residual = 0.0017117, Final residual = 6.56072e-06, No Iterations 8
smoothSolver:  Solving for Uy, Initial residual = 0.00120922, Final residual = 5.34483e-06, No Iterations 8
GAMG:  Solving for p, Initial residual = 0.000936507, Final residual = 7.46291e-06, No Iterations 5
time step continuity errors : sum local = 2.1026e-06, global = 5.39806e-17, cumulative = 2.28054e-15
smoothSolver:  Solving for nuTilda, Initial residual = 0.000874461, Final residual = 3.91529e-06, No Iterations 8
ExecutionTime = 9.76 s  ClockTime = 10 s

Time = 107

smoothSolver:  Solving for Ux, Initial residual = 0.00169804, Final residual = 6.49353e-06, No Iterations 8
smoothSolver:  Solving for Uy, Initial residual = 0.00119982, Final residual = 5.30556e-06, No Iterations 8
GAMG:  Solving for p, Initial residual = 0.000922896, Final residual = 7.43511e-06, No Iterations 5
time step continuity errors : sum local = 2.09671e-06, global = 6.96827e-17, cumulative = 2.35022e-15
smoothSolver:  Solving for nuTilda, Initial residual = 0.000858717, Final residual = 3.83924e-06, No Iterations 8
ExecutionTime = 9.85 s  ClockTime = 10 s

Time = 108

smoothSolver:  Solving for Ux, Initial residual = 0.00168433, Final residual = 6.4269e-06, No Iterations 8
smoothSolver:  Solving for Uy, Initial residual = 0.00119026, Final residual = 5.26602e-06, No Iterations 8
GAMG:  Solving for p, Initial residual = 0.000909514, Final residual = 7.22622e-06, No Iterations 5
time step continuity errors : sum local = 2.03851e-06, global = -1.42507e-16, cumulative = 2.20772e-15
smoothSolver:  Solving for nuTilda, Initial residual = 0.000843347, Final residual = 3.76488e-06, No Iterations 8
ExecutionTime = 9.94 s  ClockTime = 10 s

Time = 109

smoothSolver:  Solving for Ux, Initial residual = 0.00167049, Final residual = 6.36033e-06, No Iterations 8
smoothSolver:  Solving for Uy, Initial residual = 0.00118066, Final residual = 5.22623e-06, No Iterations 8
GAMG:  Solving for p, Initial residual = 0.000896328, Final residual = 6.97237e-06, No Iterations 5
time step continuity errors : sum local = 1.96681e-06, global = -4.31421e-17, cumulative = 2.16457e-15
smoothSolver:  Solving for nuTilda, Initial residual = 0.000828339, Final residual = 3.69211e-06, No Iterations 8
ExecutionTime = 10.02 s  ClockTime = 10 s

Time = 110

smoothSolver:  Solving for Ux, Initial residual = 0.00165662, Final residual = 6.29336e-06, No Iterations 8
smoothSolver:  Solving for Uy, Initial residual = 0.00117103, Final residual = 5.18649e-06, No Iterations 8
GAMG:  Solving for p, Initial residual = 0.0008827, Final residual = 6.74298e-06, No Iterations 5
time step continuity errors : sum local = 1.90189e-06, global = -1.93991e-16, cumulative = 1.97058e-15
smoothSolver:  Solving for nuTilda, Initial residual = 0.000813656, Final residual = 3.62077e-06, No Iterations 8
ExecutionTime = 10.11 s  ClockTime = 10 s

forces wings output:
    sum of forces:
        pressure : (1.22207 9.55645 8.46578e-20)
        viscous  : (0.289632 0.00706463 1.6659e-21)
        porous   : (0 0 0)
    sum of moments:
        pressure : (-0.477823 0.0611033 5.27839)
        viscous  : (-0.000353231 0.0144816 -0.0256831)
        porous   : (0 0 0)

Time = 111

smoothSolver:  Solving for Ux, Initial residual = 0.00164262, Final residual = 6.22554e-06, No Iterations 8
smoothSolver:  Solving for Uy, Initial residual = 0.00116151, Final residual = 5.14707e-06, No Iterations 8
GAMG:  Solving for p, Initial residual = 0.000869561, Final residual = 6.57826e-06, No Iterations 5
time step continuity errors : sum local = 1.85551e-06, global = 2.19447e-16, cumulative = 2.19003e-15
smoothSolver:  Solving for nuTilda, Initial residual = 0.000799258, Final residual = 3.55084e-06, No Iterations 8
ExecutionTime = 10.2 s  ClockTime = 10 s

Time = 112

smoothSolver:  Solving for Ux, Initial residual = 0.00162858, Final residual = 6.15731e-06, No Iterations 8
smoothSolver:  Solving for Uy, Initial residual = 0.00115204, Final residual = 5.10828e-06, No Iterations 8
GAMG:  Solving for p, Initial residual = 0.000856519, Final residual = 6.42289e-06, No Iterations 5
time step continuity errors : sum local = 1.81211e-06, global = -8.19684e-17, cumulative = 2.10806e-15
smoothSolver:  Solving for nuTilda, Initial residual = 0.000785171, Final residual = 3.48244e-06, No Iterations 8
ExecutionTime = 10.29 s  ClockTime = 10 s

Time = 113

smoothSolver:  Solving for Ux, Initial residual = 0.00161455, Final residual = 6.08917e-06, No Iterations 8
smoothSolver:  Solving for Uy, Initial residual = 0.00114255, Final residual = 5.06975e-06, No Iterations 8
GAMG:  Solving for p, Initial residual = 0.00084413, Final residual = 6.2564e-06, No Iterations 5
time step continuity errors : sum local = 1.7657e-06, global = -1.54184e-16, cumulative = 1.95388e-15
smoothSolver:  Solving for nuTilda, Initial residual = 0.00077138, Final residual = 3.4155e-06, No Iterations 8
ExecutionTime = 10.38 s  ClockTime = 10 s

Time = 114

smoothSolver:  Solving for Ux, Initial residual = 0.0016006, Final residual = 6.02076e-06, No Iterations 8
smoothSolver:  Solving for Uy, Initial residual = 0.00113298, Final residual = 5.03106e-06, No Iterations 8
GAMG:  Solving for p, Initial residual = 0.000831537, Final residual = 6.05173e-06, No Iterations 5
time step continuity errors : sum local = 1.70844e-06, global = 8.50366e-17, cumulative = 2.03891e-15
smoothSolver:  Solving for nuTilda, Initial residual = 0.000757848, Final residual = 3.34985e-06, No Iterations 8
ExecutionTime = 10.46 s  ClockTime = 11 s

Time = 115

smoothSolver:  Solving for Ux, Initial residual = 0.00158654, Final residual = 5.95215e-06, No Iterations 8
smoothSolver:  Solving for Uy, Initial residual = 0.00112344, Final residual = 4.99235e-06, No Iterations 8
GAMG:  Solving for p, Initial residual = 0.000819335, Final residual = 5.83832e-06, No Iterations 5
time step continuity errors : sum local = 1.64846e-06, global = 9.85153e-18, cumulative = 2.04877e-15
smoothSolver:  Solving for nuTilda, Initial residual = 0.000744561, Final residual = 3.28544e-06, No Iterations 8
ExecutionTime = 10.56 s  ClockTime = 11 s

forces wings output:
    sum of forces:
        pressure : (1.21578 9.65566 8.50257e-20)
        viscous  : (0.284577 0.00686932 1.71085e-21)
        porous   : (0 0 0)
    sum of moments:
        pressure : (-0.482783 0.060789 5.29797)
        viscous  : (-0.000343466 0.0142288 -0.0252331)
        porous   : (0 0 0)

Time = 116

smoothSolver:  Solving for Ux, Initial residual = 0.00157238, Final residual = 5.88319e-06, No Iterations 8
smoothSolver:  Solving for Uy, Initial residual = 0.00111396, Final residual = 4.95371e-06, No Iterations 8
GAMG:  Solving for p, Initial residual = 0.000807096, Final residual = 5.61472e-06, No Iterations 5
time step continuity errors : sum local = 1.58536e-06, global = 1.15067e-16, cumulative = 2.16383e-15
smoothSolver:  Solving for nuTilda, Initial residual = 0.00073153, Final residual = 3.22237e-06, No Iterations 8
ExecutionTime = 10.65 s  ClockTime = 11 s

Time = 117

smoothSolver:  Solving for Ux, Initial residual = 0.00155815, Final residual = 5.81387e-06, No Iterations 8
smoothSolver:  Solving for Uy, Initial residual = 0.0011045, Final residual = 4.91519e-06, No Iterations 8
GAMG:  Solving for p, Initial residual = 0.000795293, Final residual = 5.39832e-06, No Iterations 5
time step continuity errors : sum local = 1.52416e-06, global = -3.76786e-17, cumulative = 2.12616e-15
smoothSolver:  Solving for nuTilda, Initial residual = 0.000718761, Final residual = 3.16073e-06, No Iterations 8
ExecutionTime = 10.74 s  ClockTime = 11 s

Time = 118

smoothSolver:  Solving for Ux, Initial residual = 0.00154391, Final residual = 5.74404e-06, No Iterations 8
smoothSolver:  Solving for Uy, Initial residual = 0.00109509, Final residual = 4.87704e-06, No Iterations 8
GAMG:  Solving for p, Initial residual = 0.000783306, Final residual = 5.17542e-06, No Iterations 5
time step continuity errors : sum local = 1.46115e-06, global = 2.41668e-17, cumulative = 2.15032e-15
smoothSolver:  Solving for nuTilda, Initial residual = 0.000706255, Final residual = 3.10055e-06, No Iterations 8
ExecutionTime = 10.82 s  ClockTime = 11 s

Time = 119

smoothSolver:  Solving for Ux, Initial residual = 0.00152965, Final residual = 5.67401e-06, No Iterations 8
smoothSolver:  Solving for Uy, Initial residual = 0.00108572, Final residual = 4.8386e-06, No Iterations 8
GAMG:  Solving for p, Initial residual = 0.000771884, Final residual = 4.9569e-06, No Iterations 5
time step continuity errors : sum local = 1.39945e-06, global = -2.24571e-16, cumulative = 1.92575e-15
smoothSolver:  Solving for nuTilda, Initial residual = 0.000693992, Final residual = 3.04181e-06, No Iterations 8
ExecutionTime = 10.91 s  ClockTime = 11 s

Time = 120

smoothSolver:  Solving for Ux, Initial residual = 0.00151537, Final residual = 5.60373e-06, No Iterations 8
smoothSolver:  Solving for Uy, Initial residual = 0.00107638, Final residual = 4.80039e-06, No Iterations 8
GAMG:  Solving for p, Initial residual = 0.0007607, Final residual = 4.73264e-06, No Iterations 5
[...]
    sum of forces:
        pressure : (0.537445 10.5904 4.47552e-20)
        viscous  : (0.199482 0.00829008 7.02587e-22)
        porous   : (0 0 0)
    sum of moments:
        pressure : (-0.529521 0.0268723 4.33329)
        viscous  : (-0.000414504 0.00997412 -0.0168444)
        porous   : (0 0 0)

Time = 4971

smoothSolver:  Solving for Ux, Initial residual = 3.2462e-08, Final residual = 4.57387e-09, No Iterations 2
smoothSolver:  Solving for Uy, Initial residual = 1.19011e-07, Final residual = 3.26622e-09, No Iterations 4
GAMG:  Solving for p, Initial residual = 1.43732e-06, Final residual = 3.7813e-07, No Iterations 1
time step continuity errors : sum local = 1.04416e-07, global = 3.93681e-17, cumulative = 5.55506e-14
smoothSolver:  Solving for nuTilda, Initial residual = 9.37271e-09, Final residual = 9.37271e-09, No Iterations 0
ExecutionTime = 351.61 s  ClockTime = 352 s

Time = 4972

smoothSolver:  Solving for Ux, Initial residual = 4.09371e-08, Final residual = 5.05108e-09, No Iterations 2
smoothSolver:  Solving for Uy, Initial residual = 1.43689e-07, Final residual = 3.47514e-09, No Iterations 4
GAMG:  Solving for p, Initial residual = 7.54867e-07, Final residual = 7.54867e-07, No Iterations 0
time step continuity errors : sum local = 2.08434e-07, global = -9.65614e-17, cumulative = 5.5454e-14
smoothSolver:  Solving for nuTilda, Initial residual = 9.37277e-09, Final residual = 9.37277e-09, No Iterations 0
ExecutionTime = 351.67 s  ClockTime = 352 s

Time = 4973

smoothSolver:  Solving for Ux, Initial residual = 3.53036e-08, Final residual = 4.62152e-09, No Iterations 2
smoothSolver:  Solving for Uy, Initial residual = 1.25789e-07, Final residual = 3.27985e-09, No Iterations 4
GAMG:  Solving for p, Initial residual = 1.05898e-06, Final residual = 2.88568e-07, No Iterations 1
time step continuity errors : sum local = 7.96946e-08, global = -6.58965e-17, cumulative = 5.53881e-14
smoothSolver:  Solving for nuTilda, Initial residual = 9.35766e-09, Final residual = 9.35766e-09, No Iterations 0
ExecutionTime = 351.74 s  ClockTime = 352 s

Time = 4974

smoothSolver:  Solving for Ux, Initial residual = 3.63406e-08, Final residual = 4.88988e-09, No Iterations 2
smoothSolver:  Solving for Uy, Initial residual = 1.32618e-07, Final residual = 3.29277e-09, No Iterations 4
GAMG:  Solving for p, Initial residual = 7.84328e-07, Final residual = 7.84328e-07, No Iterations 0
time step continuity errors : sum local = 2.16571e-07, global = -2.06827e-16, cumulative = 5.51813e-14
smoothSolver:  Solving for nuTilda, Initial residual = 9.37003e-09, Final residual = 9.37003e-09, No Iterations 0
ExecutionTime = 351.81 s  ClockTime = 352 s

Time = 4975

smoothSolver:  Solving for Ux, Initial residual = 3.215e-08, Final residual = 4.50474e-09, No Iterations 2
smoothSolver:  Solving for Uy, Initial residual = 1.182e-07, Final residual = 3.06197e-09, No Iterations 4
GAMG:  Solving for p, Initial residual = 1.19835e-06, Final residual = 3.19858e-07, No Iterations 1
time step continuity errors : sum local = 8.83375e-08, global = 1.59476e-16, cumulative = 5.53408e-14
smoothSolver:  Solving for nuTilda, Initial residual = 9.36205e-09, Final residual = 9.36205e-09, No Iterations 0
ExecutionTime = 351.87 s  ClockTime = 352 s

forces wings output:
    sum of forces:
        pressure : (0.537441 10.5904 4.47552e-20)
        viscous  : (0.199482 0.00829008 7.02598e-22)
        porous   : (0 0 0)
    sum of moments:
        pressure : (-0.529519 0.0268721 4.33327)
        viscous  : (-0.000414504 0.00997412 -0.0168444)
        porous   : (0 0 0)

Time = 4976

smoothSolver:  Solving for Ux, Initial residual = 3.71184e-08, Final residual = 4.88358e-09, No Iterations 2
smoothSolver:  Solving for Uy, Initial residual = 1.33042e-07, Final residual = 3.32843e-09, No Iterations 4
GAMG:  Solving for p, Initial residual = 7.65083e-07, Final residual = 7.65083e-07, No Iterations 0
time step continuity errors : sum local = 2.11259e-07, global = -2.62151e-17, cumulative = 5.53146e-14
smoothSolver:  Solving for nuTilda, Initial residual = 9.37561e-09, Final residual = 9.37561e-09, No Iterations 0
ExecutionTime = 351.94 s  ClockTime = 352 s

Time = 4977

smoothSolver:  Solving for Ux, Initial residual = 3.23955e-08, Final residual = 4.44618e-09, No Iterations 2
smoothSolver:  Solving for Uy, Initial residual = 1.1808e-07, Final residual = 3.14497e-09, No Iterations 4
GAMG:  Solving for p, Initial residual = 1.08972e-06, Final residual = 2.92094e-07, No Iterations 1
time step continuity errors : sum local = 8.06682e-08, global = -2.05295e-17, cumulative = 5.5294e-14
smoothSolver:  Solving for nuTilda, Initial residual = 9.36411e-09, Final residual = 9.36411e-09, No Iterations 0
ExecutionTime = 352.01 s  ClockTime = 353 s

Time = 4978

smoothSolver:  Solving for Ux, Initial residual = 3.45035e-08, Final residual = 4.61819e-09, No Iterations 2
smoothSolver:  Solving for Uy, Initial residual = 1.27355e-07, Final residual = 3.34633e-09, No Iterations 4
GAMG:  Solving for p, Initial residual = 7.18304e-07, Final residual = 7.18304e-07, No Iterations 0
time step continuity errors : sum local = 1.98344e-07, global = 7.23057e-17, cumulative = 5.53664e-14
smoothSolver:  Solving for nuTilda, Initial residual = 9.36988e-09, Final residual = 9.36988e-09, No Iterations 0
ExecutionTime = 352.08 s  ClockTime = 353 s

Time = 4979

smoothSolver:  Solving for Ux, Initial residual = 3.05523e-08, Final residual = 4.30233e-09, No Iterations 2
smoothSolver:  Solving for Uy, Initial residual = 1.13597e-07, Final residual = 3.11847e-09, No Iterations 4
GAMG:  Solving for p, Initial residual = 1.07676e-06, Final residual = 2.92363e-07, No Iterations 1
time step continuity errors : sum local = 8.07367e-08, global = 7.66699e-17, cumulative = 5.5443e-14
smoothSolver:  Solving for nuTilda, Initial residual = 9.36011e-09, Final residual = 9.36011e-09, No Iterations 0
ExecutionTime = 352.15 s  ClockTime = 353 s

Time = 4980

smoothSolver:  Solving for Ux, Initial residual = 3.39375e-08, Final residual = 4.40541e-09, No Iterations 2
smoothSolver:  Solving for Uy, Initial residual = 1.23362e-07, Final residual = 2.92815e-09, No Iterations 4
GAMG:  Solving for p, Initial residual = 7.12314e-07, Final residual = 7.12314e-07, No Iterations 0
time step continuity errors : sum local = 1.96689e-07, global = 1.1222e-16, cumulative = 5.55552e-14
smoothSolver:  Solving for nuTilda, Initial residual = 9.37088e-09, Final residual = 9.37088e-09, No Iterations 0
ExecutionTime = 352.22 s  ClockTime = 353 s

forces wings output:
    sum of forces:
        pressure : (0.537445 10.5904 4.47554e-20)
        viscous  : (0.199482 0.00829008 7.02586e-22)
        porous   : (0 0 0)
    sum of moments:
        pressure : (-0.52952 0.0268723 4.33328)
        viscous  : (-0.000414504 0.00997412 -0.0168444)
        porous   : (0 0 0)

Time = 4981

smoothSolver:  Solving for Ux, Initial residual = 2.96513e-08, Final residual = 4.02899e-09, No Iterations 2
smoothSolver:  Solving for Uy, Initial residual = 1.09331e-07, Final residual = 2.76422e-09, No Iterations 4
GAMG:  Solving for p, Initial residual = 1.04305e-06, Final residual = 2.83599e-07, No Iterations 1
time step continuity errors : sum local = 7.83153e-08, global = -1.40816e-16, cumulative = 5.54144e-14
smoothSolver:  Solving for nuTilda, Initial residual = 9.36444e-09, Final residual = 9.36444e-09, No Iterations 0
ExecutionTime = 352.29 s  ClockTime = 353 s

Time = 4982

smoothSolver:  Solving for Ux, Initial residual = 3.34248e-08, Final residual = 4.51163e-09, No Iterations 2
smoothSolver:  Solving for Uy, Initial residual = 1.22786e-07, Final residual = 3.15701e-09, No Iterations 4
GAMG:  Solving for p, Initial residual = 6.87309e-07, Final residual = 6.87309e-07, No Iterations 0
time step continuity errors : sum local = 1.89782e-07, global = 2.89809e-16, cumulative = 5.57042e-14
smoothSolver:  Solving for nuTilda, Initial residual = 9.37185e-09, Final residual = 9.37185e-09, No Iterations 0
ExecutionTime = 352.35 s  ClockTime = 353 s

Time = 4983

smoothSolver:  Solving for Ux, Initial residual = 2.94675e-08, Final residual = 4.16248e-09, No Iterations 2
smoothSolver:  Solving for Uy, Initial residual = 1.09819e-07, Final residual = 2.97978e-09, No Iterations 4
GAMG:  Solving for p, Initial residual = 9.99404e-07, Final residual = 9.99404e-07, No Iterations 0
time step continuity errors : sum local = 2.75952e-07, global = -8.39194e-17, cumulative = 5.56203e-14
smoothSolver:  Solving for nuTilda, Initial residual = 9.38315e-09, Final residual = 9.38315e-09, No Iterations 0
ExecutionTime = 352.42 s  ClockTime = 353 s

Time = 4984

smoothSolver:  Solving for Ux, Initial residual = 2.62891e-08, Final residual = 3.8809e-09, No Iterations 2
smoothSolver:  Solving for Uy, Initial residual = 9.91877e-08, Final residual = 2.87869e-09, No Iterations 4
GAMG:  Solving for p, Initial residual = 1.37204e-06, Final residual = 3.68741e-07, No Iterations 1
time step continuity errors : sum local = 1.01827e-07, global = 3.39782e-17, cumulative = 5.56543e-14
smoothSolver:  Solving for nuTilda, Initial residual = 9.37055e-09, Final residual = 9.37055e-09, No Iterations 0
ExecutionTime = 352.49 s  ClockTime = 353 s

Time = 4985

smoothSolver:  Solving for Ux, Initial residual = 4.22946e-08, Final residual = 5.36432e-09, No Iterations 2
smoothSolver:  Solving for Uy, Initial residual = 1.46916e-07, Final residual = 3.50094e-09, No Iterations 4
GAMG:  Solving for p, Initial residual = 6.62918e-07, Final residual = 6.62918e-07, No Iterations 0
time step continuity errors : sum local = 1.83049e-07, global = -2.21169e-16, cumulative = 5.54331e-14
smoothSolver:  Solving for nuTilda, Initial residual = 9.37851e-09, Final residual = 9.37851e-09, No Iterations 0
ExecutionTime = 352.55 s  ClockTime = 353 s

forces wings output:
    sum of forces:
        pressure : (0.537444 10.5904 4.47554e-20)
        viscous  : (0.199482 0.00829008 7.02589e-22)
        porous   : (0 0 0)
    sum of moments:
        pressure : (-0.52952 0.0268722 4.33327)
        viscous  : (-0.000414504 0.00997412 -0.0168444)
        porous   : (0 0 0)

Time = 4986

smoothSolver:  Solving for Ux, Initial residual = 3.65552e-08, Final residual = 4.91883e-09, No Iterations 2
smoothSolver:  Solving for Uy, Initial residual = 1.29416e-07, Final residual = 3.29e-09, No Iterations 4
GAMG:  Solving for p, Initial residual = 9.9037e-07, Final residual = 9.9037e-07, No Iterations 0
time step continuity errors : sum local = 2.7346e-07, global = 2.09771e-17, cumulative = 5.54541e-14
smoothSolver:  Solving for nuTilda, Initial residual = 9.39009e-09, Final residual = 9.39009e-09, No Iterations 0
ExecutionTime = 352.62 s  ClockTime = 353 s

Time = 4987

smoothSolver:  Solving for Ux, Initial residual = 3.22784e-08, Final residual = 4.54427e-09, No Iterations 2
smoothSolver:  Solving for Uy, Initial residual = 1.15338e-07, Final residual = 3.08266e-09, No Iterations 4
GAMG:  Solving for p, Initial residual = 1.45429e-06, Final residual = 3.85137e-07, No Iterations 1
time step continuity errors : sum local = 1.06357e-07, global = 7.13104e-17, cumulative = 5.55254e-14
smoothSolver:  Solving for nuTilda, Initial residual = 9.38215e-09, Final residual = 9.38215e-09, No Iterations 0
ExecutionTime = 352.69 s  ClockTime = 353 s

Time = 4988

smoothSolver:  Solving for Ux, Initial residual = 4.26613e-08, Final residual = 5.35174e-09, No Iterations 2
smoothSolver:  Solving for Uy, Initial residual = 1.51087e-07, Final residual = 3.70087e-09, No Iterations 4
GAMG:  Solving for p, Initial residual = 7.6955e-07, Final residual = 7.6955e-07, No Iterations 0
time step continuity errors : sum local = 2.12492e-07, global = -2.82247e-17, cumulative = 5.54972e-14
smoothSolver:  Solving for nuTilda, Initial residual = 9.39016e-09, Final residual = 9.39016e-09, No Iterations 0
ExecutionTime = 352.76 s  ClockTime = 353 s

Time = 4989

smoothSolver:  Solving for Ux, Initial residual = 3.67904e-08, Final residual = 4.90178e-09, No Iterations 2
smoothSolver:  Solving for Uy, Initial residual = 1.32908e-07, Final residual = 3.47273e-09, No Iterations 4
GAMG:  Solving for p, Initial residual = 1.07893e-06, Final residual = 2.89901e-07, No Iterations 1
time step continuity errors : sum local = 8.00565e-08, global = -7.45256e-17, cumulative = 5.54227e-14
smoothSolver:  Solving for nuTilda, Initial residual = 9.38213e-09, Final residual = 9.38213e-09, No Iterations 0
ExecutionTime = 352.83 s  ClockTime = 353 s

Time = 4990

smoothSolver:  Solving for Ux, Initial residual = 3.63922e-08, Final residual = 4.89732e-09, No Iterations 2
smoothSolver:  Solving for Uy, Initial residual = 1.33467e-07, Final residual = 3.45475e-09, No Iterations 4
GAMG:  Solving for p, Initial residual = 7.90389e-07, Final residual = 7.90389e-07, No Iterations 0
time step continuity errors : sum local = 2.18245e-07, global = -1.92467e-17, cumulative = 5.54034e-14
smoothSolver:  Solving for nuTilda, Initial residual = 9.38978e-09, Final residual = 9.38978e-09, No Iterations 0
ExecutionTime = 352.89 s  ClockTime = 353 s

forces wings output:
    sum of forces:
        pressure : (0.537444 10.5904 4.47549e-20)
        viscous  : (0.199482 0.00829008 7.02602e-22)
        porous   : (0 0 0)
    sum of moments:
        pressure : (-0.52952 0.0268722 4.33328)
        viscous  : (-0.000414504 0.00997412 -0.0168444)
        porous   : (0 0 0)

Time = 4991

smoothSolver:  Solving for Ux, Initial residual = 3.23206e-08, Final residual = 4.55602e-09, No Iterations 2
smoothSolver:  Solving for Uy, Initial residual = 1.19059e-07, Final residual = 3.21689e-09, No Iterations 4
GAMG:  Solving for p, Initial residual = 1.20623e-06, Final residual = 3.2398e-07, No Iterations 1
time step continuity errors : sum local = 8.94595e-08, global = 1.86965e-16, cumulative = 5.55904e-14
smoothSolver:  Solving for nuTilda, Initial residual = 9.38078e-09, Final residual = 9.38078e-09, No Iterations 0
ExecutionTime = 352.96 s  ClockTime = 353 s

Time = 4992

smoothSolver:  Solving for Ux, Initial residual = 3.72504e-08, Final residual = 4.79096e-09, No Iterations 2
smoothSolver:  Solving for Uy, Initial residual = 1.33151e-07, Final residual = 3.11709e-09, No Iterations 4
GAMG:  Solving for p, Initial residual = 7.62687e-07, Final residual = 7.62687e-07, No Iterations 0
time step continuity errors : sum local = 2.10591e-07, global = -1.2362e-16, cumulative = 5.54668e-14
smoothSolver:  Solving for nuTilda, Initial residual = 9.3918e-09, Final residual = 9.3918e-09, No Iterations 0
ExecutionTime = 353.03 s  ClockTime = 354 s

Time = 4993

smoothSolver:  Solving for Ux, Initial residual = 3.24133e-08, Final residual = 4.34373e-09, No Iterations 2
smoothSolver:  Solving for Uy, Initial residual = 1.17474e-07, Final residual = 2.9908e-09, No Iterations 4
GAMG:  Solving for p, Initial residual = 1.1016e-06, Final residual = 2.989e-07, No Iterations 1
time step continuity errors : sum local = 8.25348e-08, global = -1.17803e-16, cumulative = 5.5349e-14
smoothSolver:  Solving for nuTilda, Initial residual = 9.38112e-09, Final residual = 9.38112e-09, No Iterations 0
ExecutionTime = 353.1 s  ClockTime = 354 s

Time = 4994

smoothSolver:  Solving for Ux, Initial residual = 3.58388e-08, Final residual = 4.85237e-09, No Iterations 2
smoothSolver:  Solving for Uy, Initial residual = 1.33862e-07, Final residual = 3.54662e-09, No Iterations 4
GAMG:  Solving for p, Initial residual = 7.3693e-07, Final residual = 7.3693e-07, No Iterations 0
time step continuity errors : sum local = 2.03477e-07, global = -1.28204e-17, cumulative = 5.53361e-14
smoothSolver:  Solving for nuTilda, Initial residual = 9.38511e-09, Final residual = 9.38511e-09, No Iterations 0
ExecutionTime = 353.16 s  ClockTime = 354 s

Time = 4995

smoothSolver:  Solving for Ux, Initial residual = 3.16726e-08, Final residual = 4.49711e-09, No Iterations 2
smoothSolver:  Solving for Uy, Initial residual = 1.20115e-07, Final residual = 3.36192e-09, No Iterations 4
GAMG:  Solving for p, Initial residual = 1.08722e-06, Final residual = 2.92984e-07, No Iterations 1
time step continuity errors : sum local = 8.0907e-08, global = -5.3878e-17, cumulative = 5.52823e-14
smoothSolver:  Solving for nuTilda, Initial residual = 9.37154e-09, Final residual = 9.37154e-09, No Iterations 0
ExecutionTime = 353.23 s  ClockTime = 354 s

forces wings output:
    sum of forces:
        pressure : (0.537444 10.5904 4.47553e-20)
        viscous  : (0.199482 0.00829008 7.02592e-22)
        porous   : (0 0 0)
    sum of moments:
        pressure : (-0.52952 0.0268722 4.33328)
        viscous  : (-0.000414504 0.00997412 -0.0168444)
        porous   : (0 0 0)

Time = 4996

smoothSolver:  Solving for Ux, Initial residual = 3.34384e-08, Final residual = 4.33834e-09, No Iterations 2
smoothSolver:  Solving for Uy, Initial residual = 1.20863e-07, Final residual = 3.00271e-09, No Iterations 4
GAMG:  Solving for p, Initial residual = 7.09287e-07, Final residual = 7.09287e-07, No Iterations 0
time step continuity errors : sum local = 1.95847e-07, global = 2.36648e-16, cumulative = 5.55189e-14
smoothSolver:  Solving for nuTilda, Initial residual = 9.37725e-09, Final residual = 9.37725e-09, No Iterations 0
ExecutionTime = 353.32 s  ClockTime = 354 s

Time = 4997

smoothSolver:  Solving for Ux, Initial residual = 2.92493e-08, Final residual = 3.9805e-09, No Iterations 2
smoothSolver:  Solving for Uy, Initial residual = 1.0671e-07, Final residual = 2.79065e-09, No Iterations 4
GAMG:  Solving for p, Initial residual = 1.04795e-06, Final residual = 2.82611e-07, No Iterations 1
time step continuity errors : sum local = 7.80486e-08, global = -5.79184e-17, cumulative = 5.5461e-14
smoothSolver:  Solving for nuTilda, Initial residual = 9.36305e-09, Final residual = 9.36305e-09, No Iterations 0
ExecutionTime = 353.39 s  ClockTime = 354 s

Time = 4998

smoothSolver:  Solving for Ux, Initial residual = 3.37399e-08, Final residual = 4.48014e-09, No Iterations 2
smoothSolver:  Solving for Uy, Initial residual = 1.24649e-07, Final residual = 3.04237e-09, No Iterations 4
GAMG:  Solving for p, Initial residual = 6.97881e-07, Final residual = 6.97881e-07, No Iterations 0
time step continuity errors : sum local = 1.92701e-07, global = 8.04619e-17, cumulative = 5.55415e-14
smoothSolver:  Solving for nuTilda, Initial residual = 9.37349e-09, Final residual = 9.37349e-09, No Iterations 0
ExecutionTime = 353.46 s  ClockTime = 354 s

Time = 4999

smoothSolver:  Solving for Ux, Initial residual = 2.96776e-08, Final residual = 4.1015e-09, No Iterations 2
smoothSolver:  Solving for Uy, Initial residual = 1.11473e-07, Final residual = 2.91248e-09, No Iterations 4
GAMG:  Solving for p, Initial residual = 1.02486e-06, Final residual = 2.77454e-07, No Iterations 1
time step continuity errors : sum local = 7.66242e-08, global = -2.13172e-16, cumulative = 5.53283e-14
smoothSolver:  Solving for nuTilda, Initial residual = 9.36815e-09, Final residual = 9.36815e-09, No Iterations 0
ExecutionTime = 353.53 s  ClockTime = 354 s

Time = 5000

smoothSolver:  Solving for Ux, Initial residual = 3.16795e-08, Final residual = 4.18453e-09, No Iterations 2
smoothSolver:  Solving for Uy, Initial residual = 1.17266e-07, Final residual = 3.02005e-09, No Iterations 4
GAMG:  Solving for p, Initial residual = 6.72048e-07, Final residual = 6.72048e-07, No Iterations 0
time step continuity errors : sum local = 1.85569e-07, global = -1.54821e-16, cumulative = 5.51735e-14
smoothSolver:  Solving for nuTilda, Initial residual = 9.37398e-09, Final residual = 9.37398e-09, No Iterations 0
ExecutionTime = 353.73 s  ClockTime = 354 s

forces wings output:
    sum of forces:
        pressure : (0.537443 10.5904 4.47552e-20)
        viscous  : (0.199482 0.00829008 7.02599e-22)
        porous   : (0 0 0)
    sum of moments:
        pressure : (-0.52952 0.0268721 4.33327)
        viscous  : (-0.000414504 0.00997412 -0.0168444)
        porous   : (0 0 0)

End

