/*---------------------------------------------------------------------------*\
| =========                 |                                                 |
| \\      /  F ield         | OpenFOAM: The Open Source CFD Toolbox           |
|  \\    /   O peration     | Version:  2.3.0                                 |
|   \\  /    A nd           | Web:      www.OpenFOAM.org                      |
|    \\/     M anipulation  |                                                 |
\*---------------------------------------------------------------------------*/
Build  : 2.3.0-f5222ca19ce6
Exec   : simpleFoam -case Runs/first_arc_300_24/case
Date   : Jan 12 2015
Time   : 01:49:40
Host   : "lordvon-XPS-8300"
PID    : 10458
Case   : Runs/first_arc_300_24/case
nProcs : 1
sigFpe : Enabling floating point exception trapping (FOAM_SIGFPE).
fileModificationChecking : Monitoring run-time modified files using timeStampMaster
allowSystemOperations : Disallowing user-supplied system call operations

// * * * * * * * * * * * * * * * * * * * * * * * * * * * * * * * * * * * * * //
Create time

Create mesh for time = 0

Reading field p

Reading field U

Reading/calculating face flux field phi

Selecting incompressible transport model Newtonian
Selecting RAS turbulence model SpalartAllmaras
SpalartAllmarasCoeffs
{
    sigmaNut        0.66666;
    kappa           0.41;
    Cb1             0.1355;
    Cb2             0.622;
    Cw2             0.3;
    Cw3             2;
    Cv1             7.1;
    Cv2             5;
}

    Employing Ashford correction
No finite volume options present


SIMPLE: convergence criteria
    field p	 tolerance 1e-12
    field U	 tolerance 1e-12
    field nuTilda	 tolerance 1e-12


Starting time loop

forces wings:
    Not including porosity effects

Time = 1

smoothSolver:  Solving for Ux, Initial residual = 1, Final residual = 0.00308173, No Iterations 6
smoothSolver:  Solving for Uy, Initial residual = 1, Final residual = 0.00768953, No Iterations 4
GAMG:  Solving for p, Initial residual = 1, Final residual = 0.00759444, No Iterations 12
time step continuity errors : sum local = 0.0012357, global = -1.0336e-16, cumulative = -1.0336e-16
smoothSolver:  Solving for nuTilda, Initial residual = 1, Final residual = 0.00387996, No Iterations 4
ExecutionTime = 0.36 s  ClockTime = 0 s

Time = 2

smoothSolver:  Solving for Ux, Initial residual = 0.621038, Final residual = 0.00338914, No Iterations 8
smoothSolver:  Solving for Uy, Initial residual = 0.668028, Final residual = 0.00375228, No Iterations 8
GAMG:  Solving for p, Initial residual = 0.797309, Final residual = 0.00620834, No Iterations 7
time step continuity errors : sum local = 0.002478, global = -9.68728e-17, cumulative = -2.00232e-16
smoothSolver:  Solving for nuTilda, Initial residual = 0.184379, Final residual = 0.000680404, No Iterations 6
ExecutionTime = 0.45 s  ClockTime = 0 s

Time = 3

smoothSolver:  Solving for Ux, Initial residual = 0.214426, Final residual = 0.00115329, No Iterations 8
smoothSolver:  Solving for Uy, Initial residual = 0.233086, Final residual = 0.00129331, No Iterations 8
GAMG:  Solving for p, Initial residual = 0.636043, Final residual = 0.00572145, No Iterations 9
time step continuity errors : sum local = 0.00318591, global = -1.92704e-16, cumulative = -3.92937e-16
smoothSolver:  Solving for nuTilda, Initial residual = 0.092963, Final residual = 0.000803249, No Iterations 6
ExecutionTime = 0.54 s  ClockTime = 0 s

Time = 4

smoothSolver:  Solving for Ux, Initial residual = 0.0682035, Final residual = 0.000332796, No Iterations 8
smoothSolver:  Solving for Uy, Initial residual = 0.0742675, Final residual = 0.000389956, No Iterations 8
GAMG:  Solving for p, Initial residual = 0.537318, Final residual = 0.00527009, No Iterations 7
time step continuity errors : sum local = 0.0027421, global = -6.59229e-17, cumulative = -4.58859e-16
smoothSolver:  Solving for nuTilda, Initial residual = 0.0699668, Final residual = 0.000195739, No Iterations 8
ExecutionTime = 0.63 s  ClockTime = 0 s

Time = 5

smoothSolver:  Solving for Ux, Initial residual = 0.211096, Final residual = 0.00113066, No Iterations 8
smoothSolver:  Solving for Uy, Initial residual = 0.230755, Final residual = 0.00124912, No Iterations 8
GAMG:  Solving for p, Initial residual = 0.507596, Final residual = 0.00472251, No Iterations 6
time step continuity errors : sum local = 0.00254333, global = -8.50008e-17, cumulative = -5.4386e-16
smoothSolver:  Solving for nuTilda, Initial residual = 0.0575539, Final residual = 0.000180704, No Iterations 8
ExecutionTime = 0.72 s  ClockTime = 1 s

forces wings output:
    sum of forces:
        pressure : (-1263.75 -2528.86 1.06648e-17)
        viscous  : (0.464417 -0.131781 -2.2703e-19)
        porous   : (0 0 0)
    sum of moments:
        pressure : (126.443 -63.1875 -941.018)
        viscous  : (0.00658907 0.0232209 -0.0208483)
        porous   : (0 0 0)

Time = 6

smoothSolver:  Solving for Ux, Initial residual = 0.180786, Final residual = 0.000944495, No Iterations 8
smoothSolver:  Solving for Uy, Initial residual = 0.2112, Final residual = 0.00113245, No Iterations 8
GAMG:  Solving for p, Initial residual = 0.413642, Final residual = 0.00329663, No Iterations 9
time step continuity errors : sum local = 0.00178652, global = -5.11811e-18, cumulative = -5.48978e-16
smoothSolver:  Solving for nuTilda, Initial residual = 0.0479973, Final residual = 0.000158445, No Iterations 8
ExecutionTime = 0.82 s  ClockTime = 1 s

Time = 7

smoothSolver:  Solving for Ux, Initial residual = 0.15141, Final residual = 0.000752623, No Iterations 8
smoothSolver:  Solving for Uy, Initial residual = 0.184273, Final residual = 0.000964436, No Iterations 8
GAMG:  Solving for p, Initial residual = 0.311366, Final residual = 0.00254488, No Iterations 7
time step continuity errors : sum local = 0.00131797, global = -1.08771e-16, cumulative = -6.57749e-16
smoothSolver:  Solving for nuTilda, Initial residual = 0.0401051, Final residual = 0.000136082, No Iterations 8
ExecutionTime = 0.91 s  ClockTime = 1 s

Time = 8

smoothSolver:  Solving for Ux, Initial residual = 0.154797, Final residual = 0.000804541, No Iterations 8
smoothSolver:  Solving for Uy, Initial residual = 0.179388, Final residual = 0.000953848, No Iterations 8
GAMG:  Solving for p, Initial residual = 0.354522, Final residual = 0.00301918, No Iterations 7
time step continuity errors : sum local = 0.00166498, global = 1.30015e-16, cumulative = -5.27734e-16
smoothSolver:  Solving for nuTilda, Initial residual = 0.0339231, Final residual = 0.000117114, No Iterations 8
ExecutionTime = 1 s  ClockTime = 1 s

Time = 9

smoothSolver:  Solving for Ux, Initial residual = 0.0452379, Final residual = 0.000216634, No Iterations 8
smoothSolver:  Solving for Uy, Initial residual = 0.0446303, Final residual = 0.000231229, No Iterations 8
GAMG:  Solving for p, Initial residual = 0.276308, Final residual = 0.00183142, No Iterations 9
time step continuity errors : sum local = 0.000995937, global = -1.5808e-16, cumulative = -6.85814e-16
smoothSolver:  Solving for nuTilda, Initial residual = 0.0291154, Final residual = 0.000102852, No Iterations 8
ExecutionTime = 1.11 s  ClockTime = 1 s

Time = 10

smoothSolver:  Solving for Ux, Initial residual = 0.0641099, Final residual = 0.000320317, No Iterations 8
smoothSolver:  Solving for Uy, Initial residual = 0.0754402, Final residual = 0.000391069, No Iterations 8
GAMG:  Solving for p, Initial residual = 0.229751, Final residual = 0.00162248, No Iterations 6
time step continuity errors : sum local = 0.000852149, global = 4.33132e-17, cumulative = -6.42501e-16
smoothSolver:  Solving for nuTilda, Initial residual = 0.0254127, Final residual = 9.21159e-05, No Iterations 8
ExecutionTime = 1.19 s  ClockTime = 1 s

forces wings output:
    sum of forces:
        pressure : (-785.514 -1559.26 5.39233e-18)
        viscous  : (0.387915 -0.221292 -2.73414e-19)
        porous   : (0 0 0)
    sum of moments:
        pressure : (77.9628 -39.2757 -591.608)
        viscous  : (0.0110646 0.0193957 -0.0549576)
        porous   : (0 0 0)

Time = 11

smoothSolver:  Solving for Ux, Initial residual = 0.0818359, Final residual = 0.000417737, No Iterations 8
smoothSolver:  Solving for Uy, Initial residual = 0.100795, Final residual = 0.000524006, No Iterations 8
GAMG:  Solving for p, Initial residual = 0.249476, Final residual = 0.00225994, No Iterations 6
time step continuity errors : sum local = 0.00121226, global = 4.21646e-17, cumulative = -6.00336e-16
smoothSolver:  Solving for nuTilda, Initial residual = 0.0225019, Final residual = 8.36792e-05, No Iterations 8
ExecutionTime = 1.29 s  ClockTime = 1 s

Time = 12

smoothSolver:  Solving for Ux, Initial residual = 0.0253776, Final residual = 0.00010214, No Iterations 8
smoothSolver:  Solving for Uy, Initial residual = 0.0238765, Final residual = 0.000107669, No Iterations 8
GAMG:  Solving for p, Initial residual = 0.186759, Final residual = 0.00176257, No Iterations 7
time step continuity errors : sum local = 0.00090721, global = 9.74854e-17, cumulative = -5.02851e-16
smoothSolver:  Solving for nuTilda, Initial residual = 0.0200505, Final residual = 7.63783e-05, No Iterations 8
ExecutionTime = 1.38 s  ClockTime = 1 s

Time = 13

smoothSolver:  Solving for Ux, Initial residual = 0.0571685, Final residual = 0.00027574, No Iterations 8
smoothSolver:  Solving for Uy, Initial residual = 0.0676341, Final residual = 0.000342808, No Iterations 8
GAMG:  Solving for p, Initial residual = 0.164182, Final residual = 0.0011013, No Iterations 6
time step continuity errors : sum local = 0.000557305, global = -9.18235e-17, cumulative = -5.94674e-16
smoothSolver:  Solving for nuTilda, Initial residual = 0.0178777, Final residual = 6.95449e-05, No Iterations 8
ExecutionTime = 1.47 s  ClockTime = 1 s

Time = 14

smoothSolver:  Solving for Ux, Initial residual = 0.043433, Final residual = 0.000210244, No Iterations 8
smoothSolver:  Solving for Uy, Initial residual = 0.0481726, Final residual = 0.000244039, No Iterations 8
GAMG:  Solving for p, Initial residual = 0.175773, Final residual = 0.00142844, No Iterations 6
time step continuity errors : sum local = 0.000742123, global = -4.97376e-17, cumulative = -6.44412e-16
smoothSolver:  Solving for nuTilda, Initial residual = 0.0159805, Final residual = 6.3556e-05, No Iterations 8
ExecutionTime = 1.56 s  ClockTime = 1 s

Time = 15

smoothSolver:  Solving for Ux, Initial residual = 0.0178056, Final residual = 7.4495e-05, No Iterations 8
smoothSolver:  Solving for Uy, Initial residual = 0.0148322, Final residual = 6.72651e-05, No Iterations 8
GAMG:  Solving for p, Initial residual = 0.129044, Final residual = 0.000851077, No Iterations 7
time step continuity errors : sum local = 0.000433862, global = -1.04703e-17, cumulative = -6.54882e-16
smoothSolver:  Solving for nuTilda, Initial residual = 0.0143912, Final residual = 5.8702e-05, No Iterations 8
ExecutionTime = 1.65 s  ClockTime = 1 s

forces wings output:
    sum of forces:
        pressure : (-279.683 -546.324 1.06882e-18)
        viscous  : (0.378056 -0.208071 -1.34971e-19)
        porous   : (0 0 0)
    sum of moments:
        pressure : (27.3162 -13.9842 -215.338)
        viscous  : (0.0104035 0.0189028 -0.0509829)
        porous   : (0 0 0)

Time = 16

smoothSolver:  Solving for Ux, Initial residual = 0.0315525, Final residual = 0.000152527, No Iterations 8
smoothSolver:  Solving for Uy, Initial residual = 0.0377656, Final residual = 0.000188314, No Iterations 8
GAMG:  Solving for p, Initial residual = 0.124073, Final residual = 0.000718491, No Iterations 6
time step continuity errors : sum local = 0.000364461, global = -6.18844e-17, cumulative = -7.16766e-16
smoothSolver:  Solving for nuTilda, Initial residual = 0.0130951, Final residual = 5.47777e-05, No Iterations 8
ExecutionTime = 1.74 s  ClockTime = 2 s

Time = 17

smoothSolver:  Solving for Ux, Initial residual = 0.0224499, Final residual = 0.000106537, No Iterations 8
smoothSolver:  Solving for Uy, Initial residual = 0.0275675, Final residual = 0.000134666, No Iterations 8
GAMG:  Solving for p, Initial residual = 0.12396, Final residual = 0.000835208, No Iterations 6
time step continuity errors : sum local = 0.000427449, global = -7.86758e-18, cumulative = -7.24634e-16
smoothSolver:  Solving for nuTilda, Initial residual = 0.0119908, Final residual = 5.14655e-05, No Iterations 8
ExecutionTime = 1.82 s  ClockTime = 2 s

Time = 18

smoothSolver:  Solving for Ux, Initial residual = 0.0147518, Final residual = 6.21968e-05, No Iterations 8
smoothSolver:  Solving for Uy, Initial residual = 0.0162344, Final residual = 7.4503e-05, No Iterations 8
GAMG:  Solving for p, Initial residual = 0.0902985, Final residual = 0.000834363, No Iterations 5
time step continuity errors : sum local = 0.000417582, global = 3.01279e-17, cumulative = -6.94506e-16
smoothSolver:  Solving for nuTilda, Initial residual = 0.0110258, Final residual = 4.84149e-05, No Iterations 8
ExecutionTime = 1.91 s  ClockTime = 2 s

Time = 19

smoothSolver:  Solving for Ux, Initial residual = 0.0210899, Final residual = 9.73068e-05, No Iterations 8
smoothSolver:  Solving for Uy, Initial residual = 0.0241161, Final residual = 0.000116846, No Iterations 8
GAMG:  Solving for p, Initial residual = 0.0903634, Final residual = 0.000479529, No Iterations 6
time step continuity errors : sum local = 0.000240369, global = 2.21113e-16, cumulative = -4.73393e-16
smoothSolver:  Solving for nuTilda, Initial residual = 0.010148, Final residual = 4.54807e-05, No Iterations 8
ExecutionTime = 2 s  ClockTime = 2 s

Time = 20

smoothSolver:  Solving for Ux, Initial residual = 0.0125278, Final residual = 5.49659e-05, No Iterations 8
smoothSolver:  Solving for Uy, Initial residual = 0.0118033, Final residual = 5.58688e-05, No Iterations 8
GAMG:  Solving for p, Initial residual = 0.0869988, Final residual = 0.000530652, No Iterations 6
time step continuity errors : sum local = 0.000264793, global = -1.35892e-16, cumulative = -6.09285e-16
smoothSolver:  Solving for nuTilda, Initial residual = 0.00936582, Final residual = 4.27546e-05, No Iterations 8
ExecutionTime = 2.08 s  ClockTime = 2 s

forces wings output:
    sum of forces:
        pressure : (-46.7489 -83.0576 -8.61098e-19)
        viscous  : (0.378154 -0.18253 -3.02073e-20)
        porous   : (0 0 0)
    sum of moments:
        pressure : (4.15288 -2.33745 -40.3765)
        viscous  : (0.0091265 0.0189077 -0.0420024)
        porous   : (0 0 0)

Time = 21

smoothSolver:  Solving for Ux, Initial residual = 0.0117661, Final residual = 5.13102e-05, No Iterations 8
smoothSolver:  Solving for Uy, Initial residual = 0.0110393, Final residual = 5.22142e-05, No Iterations 8
GAMG:  Solving for p, Initial residual = 0.0642717, Final residual = 0.000399074, No Iterations 5
time step continuity errors : sum local = 0.000199608, global = 3.08293e-17, cumulative = -5.78456e-16
smoothSolver:  Solving for nuTilda, Initial residual = 0.00870665, Final residual = 4.03813e-05, No Iterations 8
ExecutionTime = 2.17 s  ClockTime = 2 s

Time = 22

smoothSolver:  Solving for Ux, Initial residual = 0.0125947, Final residual = 5.84617e-05, No Iterations 8
smoothSolver:  Solving for Uy, Initial residual = 0.0145694, Final residual = 7.0384e-05, No Iterations 8
GAMG:  Solving for p, Initial residual = 0.0621876, Final residual = 0.000242395, No Iterations 6
time step continuity errors : sum local = 0.000122004, global = 1.16906e-17, cumulative = -5.66765e-16
smoothSolver:  Solving for nuTilda, Initial residual = 0.00816745, Final residual = 3.83207e-05, No Iterations 8
ExecutionTime = 2.26 s  ClockTime = 2 s

Time = 23

smoothSolver:  Solving for Ux, Initial residual = 0.00660713, Final residual = 2.78861e-05, No Iterations 8
smoothSolver:  Solving for Uy, Initial residual = 0.00674788, Final residual = 3.07404e-05, No Iterations 8
GAMG:  Solving for p, Initial residual = 0.0585278, Final residual = 0.000541726, No Iterations 5
time step continuity errors : sum local = 0.000270139, global = -2.03667e-16, cumulative = -7.70432e-16
smoothSolver:  Solving for nuTilda, Initial residual = 0.00771135, Final residual = 3.64504e-05, No Iterations 8
ExecutionTime = 2.34 s  ClockTime = 2 s

Time = 24

smoothSolver:  Solving for Ux, Initial residual = 0.00862088, Final residual = 3.66162e-05, No Iterations 8
smoothSolver:  Solving for Uy, Initial residual = 0.00887871, Final residual = 4.20857e-05, No Iterations 8
GAMG:  Solving for p, Initial residual = 0.0451139, Final residual = 0.000316064, No Iterations 6
time step continuity errors : sum local = 0.000156933, global = 6.42918e-17, cumulative = -7.0614e-16
smoothSolver:  Solving for nuTilda, Initial residual = 0.007313, Final residual = 3.46668e-05, No Iterations 8
ExecutionTime = 2.43 s  ClockTime = 2 s

Time = 25

smoothSolver:  Solving for Ux, Initial residual = 0.00863073, Final residual = 3.70079e-05, No Iterations 8
smoothSolver:  Solving for Uy, Initial residual = 0.0083362, Final residual = 3.94819e-05, No Iterations 8
GAMG:  Solving for p, Initial residual = 0.0421103, Final residual = 0.000236382, No Iterations 6
time step continuity errors : sum local = 0.000118123, global = -1.78771e-16, cumulative = -8.84912e-16
smoothSolver:  Solving for nuTilda, Initial residual = 0.0069487, Final residual = 3.29473e-05, No Iterations 8
ExecutionTime = 2.52 s  ClockTime = 2 s

forces wings output:
    sum of forces:
        pressure : (21.9192 52.9165 -1.60539e-18)
        viscous  : (0.372457 -0.165921 1.07433e-20)
        porous   : (0 0 0)
    sum of moments:
        pressure : (-2.64583 1.09596 11.5173)
        viscous  : (0.00829607 0.0186229 -0.03644)
        porous   : (0 0 0)

Time = 26

smoothSolver:  Solving for Ux, Initial residual = 0.00580567, Final residual = 2.26391e-05, No Iterations 8
smoothSolver:  Solving for Uy, Initial residual = 0.00427513, Final residual = 1.94553e-05, No Iterations 8
GAMG:  Solving for p, Initial residual = 0.0392403, Final residual = 0.000273328, No Iterations 5
time step continuity errors : sum local = 0.000136264, global = 9.63794e-17, cumulative = -7.88532e-16
smoothSolver:  Solving for nuTilda, Initial residual = 0.00660926, Final residual = 3.13505e-05, No Iterations 8
ExecutionTime = 2.61 s  ClockTime = 2 s

Time = 27

smoothSolver:  Solving for Ux, Initial residual = 0.00676945, Final residual = 2.80688e-05, No Iterations 8
smoothSolver:  Solving for Uy, Initial residual = 0.00604719, Final residual = 2.87949e-05, No Iterations 8
GAMG:  Solving for p, Initial residual = 0.031874, Final residual = 0.00025313, No Iterations 5
time step continuity errors : sum local = 0.000126012, global = -3.27122e-17, cumulative = -8.21244e-16
smoothSolver:  Solving for nuTilda, Initial residual = 0.00629138, Final residual = 2.99139e-05, No Iterations 8
ExecutionTime = 2.69 s  ClockTime = 2 s

Time = 28

smoothSolver:  Solving for Ux, Initial residual = 0.00560669, Final residual = 2.35183e-05, No Iterations 8
smoothSolver:  Solving for Uy, Initial residual = 0.00545944, Final residual = 2.61831e-05, No Iterations 8
GAMG:  Solving for p, Initial residual = 0.0275248, Final residual = 0.000241918, No Iterations 5
time step continuity errors : sum local = 0.000121006, global = -6.38087e-18, cumulative = -8.27625e-16
smoothSolver:  Solving for nuTilda, Initial residual = 0.0059969, Final residual = 2.86076e-05, No Iterations 8
ExecutionTime = 2.78 s  ClockTime = 3 s

Time = 29

smoothSolver:  Solving for Ux, Initial residual = 0.00447481, Final residual = 1.82475e-05, No Iterations 8
smoothSolver:  Solving for Uy, Initial residual = 0.00388124, Final residual = 1.82367e-05, No Iterations 8
GAMG:  Solving for p, Initial residual = 0.0255858, Final residual = 0.000249435, No Iterations 5
time step continuity errors : sum local = 0.000125424, global = 1.07387e-16, cumulative = -7.20238e-16
smoothSolver:  Solving for nuTilda, Initial residual = 0.00572804, Final residual = 2.73936e-05, No Iterations 8
ExecutionTime = 2.86 s  ClockTime = 3 s

Time = 30

smoothSolver:  Solving for Ux, Initial residual = 0.0049924, Final residual = 2.09995e-05, No Iterations 8
smoothSolver:  Solving for Uy, Initial residual = 0.00428597, Final residual = 2.08151e-05, No Iterations 8
GAMG:  Solving for p, Initial residual = 0.022255, Final residual = 8.81187e-05, No Iterations 6
time step continuity errors : sum local = 4.3803e-05, global = -1.02649e-16, cumulative = -8.22887e-16
smoothSolver:  Solving for nuTilda, Initial residual = 0.00546973, Final residual = 2.62245e-05, No Iterations 8
bounding nuTilda, min: -1.14326e-05 max: 0.413946 average: 0.0850973
ExecutionTime = 2.95 s  ClockTime = 3 s

forces wings output:
    sum of forces:
        pressure : (26.2464 62.3611 -1.73879e-18)
        viscous  : (0.36235 -0.157236 1.61377e-20)
        porous   : (0 0 0)
    sum of moments:
        pressure : (-3.11806 1.31232 14.3226)
        viscous  : (0.00786181 0.0181175 -0.0339202)
        porous   : (0 0 0)

Time = 31

smoothSolver:  Solving for Ux, Initial residual = 0.00439287, Final residual = 1.82589e-05, No Iterations 8
smoothSolver:  Solving for Uy, Initial residual = 0.00319309, Final residual = 1.5621e-05, No Iterations 8
GAMG:  Solving for p, Initial residual = 0.0177482, Final residual = 0.000133881, No Iterations 5
time step continuity errors : sum local = 6.67377e-05, global = -2.40287e-16, cumulative = -1.06317e-15
smoothSolver:  Solving for nuTilda, Initial residual = 0.00523189, Final residual = 2.51113e-05, No Iterations 8
ExecutionTime = 3.04 s  ClockTime = 3 s

Time = 32

smoothSolver:  Solving for Ux, Initial residual = 0.00399683, Final residual = 1.62684e-05, No Iterations 8
smoothSolver:  Solving for Uy, Initial residual = 0.00282488, Final residual = 1.36375e-05, No Iterations 8
GAMG:  Solving for p, Initial residual = 0.016172, Final residual = 7.83324e-05, No Iterations 5
time step continuity errors : sum local = 3.87394e-05, global = 2.6661e-16, cumulative = -7.96564e-16
smoothSolver:  Solving for nuTilda, Initial residual = 0.00500933, Final residual = 2.40523e-05, No Iterations 8
ExecutionTime = 3.12 s  ClockTime = 3 s

Time = 33

smoothSolver:  Solving for Ux, Initial residual = 0.00401416, Final residual = 1.66603e-05, No Iterations 8
smoothSolver:  Solving for Uy, Initial residual = 0.00311073, Final residual = 1.54064e-05, No Iterations 8
GAMG:  Solving for p, Initial residual = 0.0151289, Final residual = 0.00013833, No Iterations 5
time step continuity errors : sum local = 6.87898e-05, global = 9.78796e-17, cumulative = -6.98684e-16
smoothSolver:  Solving for nuTilda, Initial residual = 0.00480748, Final residual = 2.30814e-05, No Iterations 8
bounding nuTilda, min: -2.78124e-05 max: 0.413924 average: 0.0826964
ExecutionTime = 3.21 s  ClockTime = 3 s

Time = 34

smoothSolver:  Solving for Ux, Initial residual = 0.00355313, Final residual = 1.48235e-05, No Iterations 8
smoothSolver:  Solving for Uy, Initial residual = 0.00251825, Final residual = 1.27872e-05, No Iterations 8
GAMG:  Solving for p, Initial residual = 0.0116558, Final residual = 8.94871e-05, No Iterations 5
time step continuity errors : sum local = 4.42902e-05, global = 1.93437e-16, cumulative = -5.05247e-16
smoothSolver:  Solving for nuTilda, Initial residual = 0.00462446, Final residual = 2.21563e-05, No Iterations 8
ExecutionTime = 3.29 s  ClockTime = 3 s

Time = 35

smoothSolver:  Solving for Ux, Initial residual = 0.00347713, Final residual = 1.46707e-05, No Iterations 8
smoothSolver:  Solving for Uy, Initial residual = 0.00249857, Final residual = 1.26166e-05, No Iterations 8
GAMG:  Solving for p, Initial residual = 0.0105723, Final residual = 0.000100782, No Iterations 5
time step continuity errors : sum local = 5.06199e-05, global = -3.83983e-17, cumulative = -5.43646e-16
smoothSolver:  Solving for nuTilda, Initial residual = 0.00445542, Final residual = 2.13027e-05, No Iterations 8
ExecutionTime = 3.38 s  ClockTime = 3 s

forces wings output:
    sum of forces:
        pressure : (19.3157 49.5969 -1.71673e-18)
        viscous  : (0.349754 -0.151912 1.32818e-20)
        porous   : (0 0 0)
    sum of moments:
        pressure : (-2.47984 0.965786 8.57581)
        viscous  : (0.00759562 0.0174877 -0.0326965)
        porous   : (0 0 0)

Time = 36

smoothSolver:  Solving for Ux, Initial residual = 0.0033919, Final residual = 1.44291e-05, No Iterations 8
smoothSolver:  Solving for Uy, Initial residual = 0.00232224, Final residual = 1.2013e-05, No Iterations 8
GAMG:  Solving for p, Initial residual = 0.0100986, Final residual = 0.000100883, No Iterations 5
time step continuity errors : sum local = 4.9495e-05, global = 3.50036e-17, cumulative = -5.08642e-16
smoothSolver:  Solving for nuTilda, Initial residual = 0.00429383, Final residual = 2.04763e-05, No Iterations 8
bounding nuTilda, min: -8.27004e-05 max: 0.413751 average: 0.0804684
ExecutionTime = 3.47 s  ClockTime = 3 s

Time = 37

smoothSolver:  Solving for Ux, Initial residual = 0.00313678, Final residual = 1.3331e-05, No Iterations 8
smoothSolver:  Solving for Uy, Initial residual = 0.00192073, Final residual = 1.01974e-05, No Iterations 8
GAMG:  Solving for p, Initial residual = 0.00822715, Final residual = 4.14038e-05, No Iterations 5
time step continuity errors : sum local = 2.03319e-05, global = -2.31364e-17, cumulative = -5.31779e-16
smoothSolver:  Solving for nuTilda, Initial residual = 0.00414261, Final residual = 1.96976e-05, No Iterations 8
ExecutionTime = 3.55 s  ClockTime = 3 s

Time = 38

smoothSolver:  Solving for Ux, Initial residual = 0.00314656, Final residual = 1.34221e-05, No Iterations 8
smoothSolver:  Solving for Uy, Initial residual = 0.00205045, Final residual = 1.08062e-05, No Iterations 8
GAMG:  Solving for p, Initial residual = 0.00781125, Final residual = 6.25262e-05, No Iterations 5
time step continuity errors : sum local = 3.14714e-05, global = -1.40494e-16, cumulative = -6.72272e-16
smoothSolver:  Solving for nuTilda, Initial residual = 0.00399957, Final residual = 1.89477e-05, No Iterations 8
ExecutionTime = 3.64 s  ClockTime = 3 s

Time = 39

smoothSolver:  Solving for Ux, Initial residual = 0.00306497, Final residual = 1.31122e-05, No Iterations 8
smoothSolver:  Solving for Uy, Initial residual = 0.00196355, Final residual = 1.04549e-05, No Iterations 8
GAMG:  Solving for p, Initial residual = 0.00750172, Final residual = 5.85254e-05, No Iterations 5
time step continuity errors : sum local = 2.91011e-05, global = 1.64472e-16, cumulative = -5.078e-16
smoothSolver:  Solving for nuTilda, Initial residual = 0.00386085, Final residual = 1.82462e-05, No Iterations 8
bounding nuTilda, min: -0.000111618 max: 0.413544 average: 0.0783953
ExecutionTime = 3.72 s  ClockTime = 4 s

Time = 40

smoothSolver:  Solving for Ux, Initial residual = 0.00301522, Final residual = 1.29688e-05, No Iterations 8
smoothSolver:  Solving for Uy, Initial residual = 0.00179962, Final residual = 9.73333e-06, No Iterations 8
GAMG:  Solving for p, Initial residual = 0.00628931, Final residual = 5.30741e-05, No Iterations 4
time step continuity errors : sum local = 2.64687e-05, global = -3.13591e-16, cumulative = -8.21391e-16
smoothSolver:  Solving for nuTilda, Initial residual = 0.00372639, Final residual = 1.75855e-05, No Iterations 8
ExecutionTime = 3.81 s  ClockTime = 4 s

forces wings output:
    sum of forces:
        pressure : (15.2867 42.153 -1.70561e-18)
        viscous  : (0.336605 -0.147407 9.73251e-21)
        porous   : (0 0 0)
    sum of moments:
        pressure : (-2.10765 0.764336 5.2476)
        viscous  : (0.00737033 0.0168302 -0.031776)
        porous   : (0 0 0)

Time = 41

smoothSolver:  Solving for Ux, Initial residual = 0.00295387, Final residual = 1.27681e-05, No Iterations 8
smoothSolver:  Solving for Uy, Initial residual = 0.00181659, Final residual = 9.80949e-06, No Iterations 8
GAMG:  Solving for p, Initial residual = 0.00589048, Final residual = 3.0181e-05, No Iterations 5
time step continuity errors : sum local = 1.49404e-05, global = 1.73863e-16, cumulative = -6.47528e-16
smoothSolver:  Solving for nuTilda, Initial residual = 0.00359919, Final residual = 1.69604e-05, No Iterations 8
ExecutionTime = 3.89 s  ClockTime = 4 s

Time = 42

smoothSolver:  Solving for Ux, Initial residual = 0.00285173, Final residual = 1.2419e-05, No Iterations 8
smoothSolver:  Solving for Uy, Initial residual = 0.00166015, Final residual = 9.18329e-06, No Iterations 8
GAMG:  Solving for p, Initial residual = 0.00571677, Final residual = 4.27537e-05, No Iterations 5
time step continuity errors : sum local = 2.11804e-05, global = -2.44451e-17, cumulative = -6.71973e-16
smoothSolver:  Solving for nuTilda, Initial residual = 0.00347732, Final residual = 1.63592e-05, No Iterations 8
bounding nuTilda, min: -0.000107672 max: 0.413354 average: 0.0764586
ExecutionTime = 3.98 s  ClockTime = 4 s

Time = 43

smoothSolver:  Solving for Ux, Initial residual = 0.00277785, Final residual = 1.21924e-05, No Iterations 8
smoothSolver:  Solving for Uy, Initial residual = 0.00167004, Final residual = 9.27267e-06, No Iterations 8
GAMG:  Solving for p, Initial residual = 0.00519021, Final residual = 4.69961e-05, No Iterations 4
time step continuity errors : sum local = 2.32734e-05, global = -2.51025e-17, cumulative = -6.97075e-16
smoothSolver:  Solving for nuTilda, Initial residual = 0.00336401, Final residual = 1.57955e-05, No Iterations 8
ExecutionTime = 4.06 s  ClockTime = 4 s

Time = 44

smoothSolver:  Solving for Ux, Initial residual = 0.00273651, Final residual = 1.20629e-05, No Iterations 8
smoothSolver:  Solving for Uy, Initial residual = 0.0016807, Final residual = 9.37245e-06, No Iterations 8
GAMG:  Solving for p, Initial residual = 0.0050441, Final residual = 4.59913e-05, No Iterations 4
time step continuity errors : sum local = 2.28335e-05, global = -3.10178e-16, cumulative = -1.00725e-15
smoothSolver:  Solving for nuTilda, Initial residual = 0.00325576, Final residual = 1.52644e-05, No Iterations 8
ExecutionTime = 4.14 s  ClockTime = 4 s

Time = 45

smoothSolver:  Solving for Ux, Initial residual = 0.00270478, Final residual = 1.19501e-05, No Iterations 8
smoothSolver:  Solving for Uy, Initial residual = 0.00162371, Final residual = 9.15788e-06, No Iterations 8
GAMG:  Solving for p, Initial residual = 0.00479808, Final residual = 3.38914e-05, No Iterations 5
time step continuity errors : sum local = 1.69616e-05, global = 2.58535e-16, cumulative = -7.48719e-16
smoothSolver:  Solving for nuTilda, Initial residual = 0.00315194, Final residual = 1.47621e-05, No Iterations 8
bounding nuTilda, min: -7.27942e-05 max: 0.413193 average: 0.0746456
ExecutionTime = 4.23 s  ClockTime = 4 s

forces wings output:
    sum of forces:
        pressure : (14.496 40.8013 -1.7285e-18)
        viscous  : (0.32303 -0.14288 9.51105e-21)
        porous   : (0 0 0)
    sum of moments:
        pressure : (-2.04006 0.724799 4.53642)
        viscous  : (0.007144 0.0161515 -0.0308412)
        porous   : (0 0 0)

Time = 46

smoothSolver:  Solving for Ux, Initial residual = 0.002678, Final residual = 1.18568e-05, No Iterations 8
smoothSolver:  Solving for Uy, Initial residual = 0.00158103, Final residual = 8.95126e-06, No Iterations 8
GAMG:  Solving for p, Initial residual = 0.0044441, Final residual = 4.3531e-05, No Iterations 4
time step continuity errors : sum local = 2.16191e-05, global = -8.3085e-17, cumulative = -8.31804e-16
smoothSolver:  Solving for nuTilda, Initial residual = 0.00305127, Final residual = 1.42841e-05, No Iterations 8
ExecutionTime = 4.31 s  ClockTime = 4 s

Time = 47

smoothSolver:  Solving for Ux, Initial residual = 0.00263529, Final residual = 1.1711e-05, No Iterations 8
smoothSolver:  Solving for Uy, Initial residual = 0.00154614, Final residual = 8.80415e-06, No Iterations 8
GAMG:  Solving for p, Initial residual = 0.00434346, Final residual = 3.50456e-05, No Iterations 4
time step continuity errors : sum local = 1.73785e-05, global = 2.30543e-16, cumulative = -6.01261e-16
smoothSolver:  Solving for nuTilda, Initial residual = 0.00295447, Final residual = 1.38308e-05, No Iterations 8
ExecutionTime = 4.4 s  ClockTime = 4 s

Time = 48

smoothSolver:  Solving for Ux, Initial residual = 0.00258732, Final residual = 1.15515e-05, No Iterations 8
smoothSolver:  Solving for Uy, Initial residual = 0.00152603, Final residual = 8.74078e-06, No Iterations 8
GAMG:  Solving for p, Initial residual = 0.0041515, Final residual = 3.56039e-05, No Iterations 4
time step continuity errors : sum local = 1.76701e-05, global = -2.98296e-16, cumulative = -8.99557e-16
smoothSolver:  Solving for nuTilda, Initial residual = 0.0028601, Final residual = 1.34023e-05, No Iterations 8
bounding nuTilda, min: -9.47083e-06 max: 0.413051 average: 0.0729436
ExecutionTime = 4.48 s  ClockTime = 4 s

Time = 49

smoothSolver:  Solving for Ux, Initial residual = 0.00254105, Final residual = 1.13941e-05, No Iterations 8
smoothSolver:  Solving for Uy, Initial residual = 0.00153495, Final residual = 8.79191e-06, No Iterations 8
GAMG:  Solving for p, Initial residual = 0.00391596, Final residual = 3.09128e-05, No Iterations 4
time step continuity errors : sum local = 1.53108e-05, global = -6.52785e-17, cumulative = -9.64836e-16
smoothSolver:  Solving for nuTilda, Initial residual = 0.00277111, Final residual = 1.29953e-05, No Iterations 8
ExecutionTime = 4.57 s  ClockTime = 4 s

Time = 50

smoothSolver:  Solving for Ux, Initial residual = 0.00250276, Final residual = 1.1252e-05, No Iterations 8
smoothSolver:  Solving for Uy, Initial residual = 0.00153403, Final residual = 8.81379e-06, No Iterations 8
GAMG:  Solving for p, Initial residual = 0.00385445, Final residual = 1.996e-05, No Iterations 4
time step continuity errors : sum local = 9.96597e-06, global = -7.36393e-17, cumulative = -1.03847e-15
smoothSolver:  Solving for nuTilda, Initial residual = 0.00268482, Final residual = 1.25977e-05, No Iterations 8
ExecutionTime = 4.65 s  ClockTime = 4 s

forces wings output:
    sum of forces:
        pressure : (15.0151 41.9982 -1.81368e-18)
        viscous  : (0.309811 -0.138245 9.60549e-21)
        porous   : (0 0 0)
    sum of moments:
        pressure : (-2.09991 0.750755 4.83908)
        viscous  : (0.00691226 0.0154905 -0.0298354)
        porous   : (0 0 0)

Time = 51

smoothSolver:  Solving for Ux, Initial residual = 0.00247222, Final residual = 1.11341e-05, No Iterations 8
smoothSolver:  Solving for Uy, Initial residual = 0.00151539, Final residual = 8.77038e-06, No Iterations 8
GAMG:  Solving for p, Initial residual = 0.00378805, Final residual = 2.32757e-05, No Iterations 4
time step continuity errors : sum local = 1.1533e-05, global = 2.22061e-16, cumulative = -8.16414e-16
smoothSolver:  Solving for nuTilda, Initial residual = 0.00260534, Final residual = 1.22149e-05, No Iterations 8
ExecutionTime = 4.73 s  ClockTime = 5 s

Time = 52

smoothSolver:  Solving for Ux, Initial residual = 0.00244528, Final residual = 1.10303e-05, No Iterations 8
smoothSolver:  Solving for Uy, Initial residual = 0.00149376, Final residual = 8.68621e-06, No Iterations 8
GAMG:  Solving for p, Initial residual = 0.00368625, Final residual = 2.49523e-05, No Iterations 4
time step continuity errors : sum local = 1.2369e-05, global = 6.54454e-17, cumulative = -7.50969e-16
smoothSolver:  Solving for nuTilda, Initial residual = 0.00252768, Final residual = 1.18493e-05, No Iterations 8
ExecutionTime = 4.82 s  ClockTime = 5 s

Time = 53

smoothSolver:  Solving for Ux, Initial residual = 0.00241759, Final residual = 1.09286e-05, No Iterations 8
smoothSolver:  Solving for Uy, Initial residual = 0.0014758, Final residual = 8.59922e-06, No Iterations 8
GAMG:  Solving for p, Initial residual = 0.00361504, Final residual = 2.00526e-05, No Iterations 4
time step continuity errors : sum local = 9.9966e-06, global = 5.0184e-17, cumulative = -7.00785e-16
smoothSolver:  Solving for nuTilda, Initial residual = 0.00245405, Final residual = 1.14968e-05, No Iterations 8
ExecutionTime = 4.9 s  ClockTime = 5 s

Time = 54

smoothSolver:  Solving for Ux, Initial residual = 0.00239149, Final residual = 1.08335e-05, No Iterations 8
smoothSolver:  Solving for Uy, Initial residual = 0.00146238, Final residual = 8.53796e-06, No Iterations 8
GAMG:  Solving for p, Initial residual = 0.0035321, Final residual = 1.98124e-05, No Iterations 4
time step continuity errors : sum local = 9.82732e-06, global = -9.12353e-17, cumulative = -7.9202e-16
smoothSolver:  Solving for nuTilda, Initial residual = 0.00238479, Final residual = 1.11604e-05, No Iterations 8
ExecutionTime = 4.98 s  ClockTime = 5 s

Time = 55

smoothSolver:  Solving for Ux, Initial residual = 0.00236084, Final residual = 1.07184e-05, No Iterations 8
smoothSolver:  Solving for Uy, Initial residual = 0.00145739, Final residual = 8.52814e-06, No Iterations 8
GAMG:  Solving for p, Initial residual = 0.00344754, Final residual = 2.24424e-05, No Iterations 4
time step continuity errors : sum local = 1.11462e-05, global = -7.69691e-17, cumulative = -8.68989e-16
smoothSolver:  Solving for nuTilda, Initial residual = 0.002318, Final residual = 1.08348e-05, No Iterations 8
ExecutionTime = 5.07 s  ClockTime = 5 s

forces wings output:
    sum of forces:
        pressure : (15.1934 42.6394 -1.84006e-18)
        viscous  : (0.296564 -0.133602 1.02464e-20)
        porous   : (0 0 0)
    sum of moments:
        pressure : (-2.13197 0.759669 4.82086)
        viscous  : (0.00668008 0.0148282 -0.028818)
        porous   : (0 0 0)

Time = 56

smoothSolver:  Solving for Ux, Initial residual = 0.00232966, Final residual = 1.05992e-05, No Iterations 8
smoothSolver:  Solving for Uy, Initial residual = 0.00145331, Final residual = 8.53072e-06, No Iterations 8
GAMG:  Solving for p, Initial residual = 0.00339362, Final residual = 2.07593e-05, No Iterations 4
time step continuity errors : sum local = 1.02927e-05, global = 1.90319e-16, cumulative = -6.7867e-16
smoothSolver:  Solving for nuTilda, Initial residual = 0.00225295, Final residual = 1.05198e-05, No Iterations 8
ExecutionTime = 5.16 s  ClockTime = 5 s

Time = 57

smoothSolver:  Solving for Ux, Initial residual = 0.00230092, Final residual = 1.04903e-05, No Iterations 8
smoothSolver:  Solving for Uy, Initial residual = 0.00144661, Final residual = 8.52035e-06, No Iterations 8
GAMG:  Solving for p, Initial residual = 0.00332947, Final residual = 2.11608e-05, No Iterations 4
time step continuity errors : sum local = 1.05079e-05, global = -6.02174e-17, cumulative = -7.38888e-16
smoothSolver:  Solving for nuTilda, Initial residual = 0.00219026, Final residual = 1.02182e-05, No Iterations 8
ExecutionTime = 5.24 s  ClockTime = 5 s

Time = 58

smoothSolver:  Solving for Ux, Initial residual = 0.00227592, Final residual = 1.03959e-05, No Iterations 8
smoothSolver:  Solving for Uy, Initial residual = 0.00143547, Final residual = 8.48296e-06, No Iterations 8
GAMG:  Solving for p, Initial residual = 0.00326881, Final residual = 2.34692e-05, No Iterations 4
time step continuity errors : sum local = 1.16519e-05, global = -6.53125e-17, cumulative = -8.042e-16
smoothSolver:  Solving for nuTilda, Initial residual = 0.00212978, Final residual = 9.93026e-06, No Iterations 8
ExecutionTime = 5.32 s  ClockTime = 5 s

Time = 59

smoothSolver:  Solving for Ux, Initial residual = 0.00225319, Final residual = 1.03119e-05, No Iterations 8
smoothSolver:  Solving for Uy, Initial residual = 0.00142249, Final residual = 8.42849e-06, No Iterations 8
GAMG:  Solving for p, Initial residual = 0.00320714, Final residual = 2.38908e-05, No Iterations 4
time step continuity errors : sum local = 1.1863e-05, global = -9.75052e-17, cumulative = -9.01706e-16
smoothSolver:  Solving for nuTilda, Initial residual = 0.00207287, Final residual = 9.65366e-06, No Iterations 8
ExecutionTime = 5.4 s  ClockTime = 5 s

Time = 60

smoothSolver:  Solving for Ux, Initial residual = 0.0022314, Final residual = 1.02313e-05, No Iterations 8
smoothSolver:  Solving for Uy, Initial residual = 0.00140999, Final residual = 8.37347e-06, No Iterations 8
GAMG:  Solving for p, Initial residual = 0.00315508, Final residual = 1.97548e-05, No Iterations 4
time step continuity errors : sum local = 9.8353e-06, global = -1.72506e-16, cumulative = -1.07421e-15
smoothSolver:  Solving for nuTilda, Initial residual = 0.00201833, Final residual = 9.38854e-06, No Iterations 8
ExecutionTime = 5.48 s  ClockTime = 5 s

forces wings output:
    sum of forces:
        pressure : (15.4161 43.4026 -1.858e-18)
        viscous  : (0.283548 -0.129023 1.05105e-20)
        porous   : (0 0 0)
    sum of moments:
        pressure : (-2.17013 0.770805 4.81827)
        viscous  : (0.00645113 0.0141774 -0.0278105)
        porous   : (0 0 0)

Time = 61

smoothSolver:  Solving for Ux, Initial residual = 0.00220949, Final residual = 1.01479e-05, No Iterations 8
smoothSolver:  Solving for Uy, Initial residual = 0.00139916, Final residual = 8.32817e-06, No Iterations 8
GAMG:  Solving for p, Initial residual = 0.00308795, Final residual = 1.8713e-05, No Iterations 4
time step continuity errors : sum local = 9.31278e-06, global = -2.52092e-16, cumulative = -1.3263e-15
smoothSolver:  Solving for nuTilda, Initial residual = 0.00196554, Final residual = 9.13282e-06, No Iterations 8
ExecutionTime = 5.57 s  ClockTime = 5 s

Time = 62

smoothSolver:  Solving for Ux, Initial residual = 0.00218489, Final residual = 1.00477e-05, No Iterations 8
smoothSolver:  Solving for Uy, Initial residual = 0.00139165, Final residual = 8.30057e-06, No Iterations 8
GAMG:  Solving for p, Initial residual = 0.00302468, Final residual = 1.90157e-05, No Iterations 4
time step continuity errors : sum local = 9.48321e-06, global = -7.66882e-17, cumulative = -1.40299e-15
smoothSolver:  Solving for nuTilda, Initial residual = 0.0019153, Final residual = 8.88796e-06, No Iterations 8
ExecutionTime = 5.65 s  ClockTime = 5 s

Time = 63

smoothSolver:  Solving for Ux, Initial residual = 0.00215953, Final residual = 9.94459e-06, No Iterations 8
smoothSolver:  Solving for Uy, Initial residual = 0.00138537, Final residual = 8.27948e-06, No Iterations 8
GAMG:  Solving for p, Initial residual = 0.00296798, Final residual = 1.9688e-05, No Iterations 4
time step continuity errors : sum local = 9.81873e-06, global = 8.71692e-17, cumulative = -1.31582e-15
smoothSolver:  Solving for nuTilda, Initial residual = 0.00186676, Final residual = 8.64637e-06, No Iterations 8
ExecutionTime = 5.74 s  ClockTime = 6 s

Time = 64

smoothSolver:  Solving for Ux, Initial residual = 0.00213606, Final residual = 9.85201e-06, No Iterations 8
smoothSolver:  Solving for Uy, Initial residual = 0.00137772, Final residual = 8.25065e-06, No Iterations 8
GAMG:  Solving for p, Initial residual = 0.00292312, Final residual = 2.14504e-05, No Iterations 4
time step continuity errors : sum local = 1.06666e-05, global = -8.14079e-17, cumulative = -1.39723e-15
smoothSolver:  Solving for nuTilda, Initial residual = 0.00182097, Final residual = 8.40846e-06, No Iterations 8
ExecutionTime = 5.82 s  ClockTime = 6 s

Time = 65

smoothSolver:  Solving for Ux, Initial residual = 0.00211374, Final residual = 9.76456e-06, No Iterations 8
smoothSolver:  Solving for Uy, Initial residual = 0.00136904, Final residual = 8.21394e-06, No Iterations 8
GAMG:  Solving for p, Initial residual = 0.00287052, Final residual = 2.07797e-05, No Iterations 4
time step continuity errors : sum local = 1.03457e-05, global = -1.71358e-16, cumulative = -1.56859e-15
smoothSolver:  Solving for nuTilda, Initial residual = 0.00177573, Final residual = 8.18076e-06, No Iterations 8
ExecutionTime = 5.9 s  ClockTime = 6 s

forces wings output:
    sum of forces:
        pressure : (15.7631 44.3605 -1.87061e-18)
        viscous  : (0.270766 -0.124511 1.09852e-20)
        porous   : (0 0 0)
    sum of moments:
        pressure : (-2.21802 0.788157 4.93688)
        viscous  : (0.00622556 0.0135383 -0.0268107)
        porous   : (0 0 0)

Time = 66

smoothSolver:  Solving for Ux, Initial residual = 0.00209468, Final residual = 9.69115e-06, No Iterations 8
smoothSolver:  Solving for Uy, Initial residual = 0.0013578, Final residual = 8.16489e-06, No Iterations 8
GAMG:  Solving for p, Initial residual = 0.00282319, Final residual = 2.00196e-05, No Iterations 4
time step continuity errors : sum local = 9.96927e-06, global = 2.04637e-16, cumulative = -1.36395e-15
smoothSolver:  Solving for nuTilda, Initial residual = 0.00173163, Final residual = 7.96233e-06, No Iterations 8
ExecutionTime = 5.99 s  ClockTime = 6 s

Time = 67

smoothSolver:  Solving for Ux, Initial residual = 0.00207663, Final residual = 9.62039e-06, No Iterations 8
smoothSolver:  Solving for Uy, Initial residual = 0.00134638, Final residual = 8.11405e-06, No Iterations 8
GAMG:  Solving for p, Initial residual = 0.00276879, Final residual = 1.89657e-05, No Iterations 4
time step continuity errors : sum local = 9.44651e-06, global = 1.42003e-16, cumulative = -1.22195e-15
smoothSolver:  Solving for nuTilda, Initial residual = 0.00168857, Final residual = 7.75008e-06, No Iterations 8
ExecutionTime = 6.07 s  ClockTime = 6 s

Time = 68

smoothSolver:  Solving for Ux, Initial residual = 0.00205717, Final residual = 9.54025e-06, No Iterations 8
smoothSolver:  Solving for Uy, Initial residual = 0.00133691, Final residual = 8.07087e-06, No Iterations 8
GAMG:  Solving for p, Initial residual = 0.00271636, Final residual = 2.04987e-05, No Iterations 4
time step continuity errors : sum local = 1.01983e-05, global = -3.16259e-18, cumulative = -1.22511e-15
smoothSolver:  Solving for nuTilda, Initial residual = 0.00164625, Final residual = 7.54629e-06, No Iterations 8
ExecutionTime = 6.15 s  ClockTime = 6 s

Time = 69

smoothSolver:  Solving for Ux, Initial residual = 0.00203722, Final residual = 9.45624e-06, No Iterations 8
smoothSolver:  Solving for Uy, Initial residual = 0.00132855, Final residual = 8.03224e-06, No Iterations 8
GAMG:  Solving for p, Initial residual = 0.00267173, Final residual = 2.05998e-05, No Iterations 4
time step continuity errors : sum local = 1.02596e-05, global = 6.80326e-17, cumulative = -1.15708e-15
smoothSolver:  Solving for nuTilda, Initial residual = 0.00160438, Final residual = 7.34911e-06, No Iterations 8
ExecutionTime = 6.23 s  ClockTime = 6 s

Time = 70

smoothSolver:  Solving for Ux, Initial residual = 0.00201663, Final residual = 9.36679e-06, No Iterations 8
smoothSolver:  Solving for Uy, Initial residual = 0.00132166, Final residual = 7.99866e-06, No Iterations 8
GAMG:  Solving for p, Initial residual = 0.00262775, Final residual = 2.0737e-05, No Iterations 4
time step continuity errors : sum local = 1.03411e-05, global = 4.33013e-17, cumulative = -1.11378e-15
smoothSolver:  Solving for nuTilda, Initial residual = 0.00156398, Final residual = 7.16012e-06, No Iterations 8
ExecutionTime = 6.31 s  ClockTime = 6 s

forces wings output:
    sum of forces:
        pressure : (16.0709 45.2887 -1.88939e-18)
        viscous  : (0.258316 -0.120089 1.14227e-20)
        porous   : (0 0 0)
    sum of moments:
        pressure : (-2.26443 0.803546 5.00041)
        viscous  : (0.00600447 0.0129158 -0.0258318)
        porous   : (0 0 0)

Time = 71

smoothSolver:  Solving for Ux, Initial residual = 0.00199863, Final residual = 9.29176e-06, No Iterations 8
smoothSolver:  Solving for Uy, Initial residual = 0.00131287, Final residual = 7.95644e-06, No Iterations 8
GAMG:  Solving for p, Initial residual = 0.00258501, Final residual = 2.05643e-05, No Iterations 4
time step continuity errors : sum local = 1.02576e-05, global = 8.05481e-17, cumulative = -1.03323e-15
smoothSolver:  Solving for nuTilda, Initial residual = 0.00152493, Final residual = 6.97703e-06, No Iterations 8
ExecutionTime = 6.39 s  ClockTime = 6 s

Time = 72

smoothSolver:  Solving for Ux, Initial residual = 0.00198179, Final residual = 9.22118e-06, No Iterations 8
smoothSolver:  Solving for Uy, Initial residual = 0.00130325, Final residual = 7.90931e-06, No Iterations 8
GAMG:  Solving for p, Initial residual = 0.00254385, Final residual = 2.17313e-05, No Iterations 4
time step continuity errors : sum local = 1.08271e-05, global = -3.96498e-17, cumulative = -1.07288e-15
smoothSolver:  Solving for nuTilda, Initial residual = 0.00148706, Final residual = 6.80041e-06, No Iterations 8
ExecutionTime = 6.48 s  ClockTime = 6 s

Time = 73

smoothSolver:  Solving for Ux, Initial residual = 0.00196412, Final residual = 9.14445e-06, No Iterations 8
smoothSolver:  Solving for Uy, Initial residual = 0.00129466, Final residual = 7.86549e-06, No Iterations 8
GAMG:  Solving for p, Initial residual = 0.0025004, Final residual = 1.98452e-05, No Iterations 4
time step continuity errors : sum local = 9.90344e-06, global = 8.7424e-17, cumulative = -9.85455e-16
smoothSolver:  Solving for nuTilda, Initial residual = 0.00145053, Final residual = 6.63037e-06, No Iterations 8
ExecutionTime = 6.57 s  ClockTime = 6 s

Time = 74

smoothSolver:  Solving for Ux, Initial residual = 0.00194778, Final residual = 9.07517e-06, No Iterations 8
smoothSolver:  Solving for Uy, Initial residual = 0.00128459, Final residual = 7.81567e-06, No Iterations 8
GAMG:  Solving for p, Initial residual = 0.00246066, Final residual = 1.98418e-05, No Iterations 4
time step continuity errors : sum local = 9.91326e-06, global = -1.11101e-16, cumulative = -1.09656e-15
smoothSolver:  Solving for nuTilda, Initial residual = 0.0014159, Final residual = 6.46677e-06, No Iterations 8
ExecutionTime = 6.65 s  ClockTime = 6 s

Time = 75

smoothSolver:  Solving for Ux, Initial residual = 0.00193156, Final residual = 9.00589e-06, No Iterations 8
smoothSolver:  Solving for Uy, Initial residual = 0.00127498, Final residual = 7.76699e-06, No Iterations 8
GAMG:  Solving for p, Initial residual = 0.00242244, Final residual = 2.22002e-05, No Iterations 4
time step continuity errors : sum local = 1.10546e-05, global = 2.0536e-17, cumulative = -1.07602e-15
smoothSolver:  Solving for nuTilda, Initial residual = 0.0013821, Final residual = 6.30897e-06, No Iterations 8
ExecutionTime = 6.73 s  ClockTime = 7 s

forces wings output:
    sum of forces:
        pressure : (16.3772 46.2312 -1.8937e-18)
        viscous  : (0.246235 -0.115765 1.18888e-20)
        porous   : (0 0 0)
    sum of moments:
        pressure : (-2.31156 0.818858 5.05346)
        viscous  : (0.00578824 0.0123117 -0.0248789)
        porous   : (0 0 0)

Time = 76

smoothSolver:  Solving for Ux, Initial residual = 0.00191561, Final residual = 8.93622e-06, No Iterations 8
smoothSolver:  Solving for Uy, Initial residual = 0.00126589, Final residual = 7.7197e-06, No Iterations 8
GAMG:  Solving for p, Initial residual = 0.00238563, Final residual = 2.00622e-05, No Iterations 4
time step continuity errors : sum local = 1.00262e-05, global = 4.26655e-17, cumulative = -1.03335e-15
smoothSolver:  Solving for nuTilda, Initial residual = 0.00134922, Final residual = 6.15589e-06, No Iterations 8
ExecutionTime = 6.81 s  ClockTime = 7 s

Time = 77

smoothSolver:  Solving for Ux, Initial residual = 0.00189902, Final residual = 8.862e-06, No Iterations 8
smoothSolver:  Solving for Uy, Initial residual = 0.0012585, Final residual = 7.67877e-06, No Iterations 8
GAMG:  Solving for p, Initial residual = 0.00235003, Final residual = 2.11631e-05, No Iterations 4
time step continuity errors : sum local = 1.05586e-05, global = -2.34023e-17, cumulative = -1.05676e-15
smoothSolver:  Solving for nuTilda, Initial residual = 0.00131738, Final residual = 6.00589e-06, No Iterations 8
ExecutionTime = 6.89 s  ClockTime = 7 s

Time = 78

smoothSolver:  Solving for Ux, Initial residual = 0.00188342, Final residual = 8.79258e-06, No Iterations 8
smoothSolver:  Solving for Uy, Initial residual = 0.00125049, Final residual = 7.63513e-06, No Iterations 8
GAMG:  Solving for p, Initial residual = 0.00231857, Final residual = 2.20413e-05, No Iterations 4
time step continuity errors : sum local = 1.0987e-05, global = 1.1358e-17, cumulative = -1.0454e-15
smoothSolver:  Solving for nuTilda, Initial residual = 0.00128641, Final residual = 5.86099e-06, No Iterations 8
ExecutionTime = 6.98 s  ClockTime = 7 s

Time = 79

smoothSolver:  Solving for Ux, Initial residual = 0.00186889, Final residual = 8.72799e-06, No Iterations 8
smoothSolver:  Solving for Uy, Initial residual = 0.00124163, Final residual = 7.58717e-06, No Iterations 8
GAMG:  Solving for p, Initial residual = 0.00228995, Final residual = 1.98818e-05, No Iterations 4
time step continuity errors : sum local = 9.95042e-06, global = -1.8525e-16, cumulative = -1.23065e-15
smoothSolver:  Solving for nuTilda, Initial residual = 0.00125638, Final residual = 5.72089e-06, No Iterations 8
ExecutionTime = 7.07 s  ClockTime = 7 s

Time = 80

smoothSolver:  Solving for Ux, Initial residual = 0.00185433, Final residual = 8.663e-06, No Iterations 8
smoothSolver:  Solving for Uy, Initial residual = 0.00123307, Final residual = 7.53973e-06, No Iterations 8
GAMG:  Solving for p, Initial residual = 0.00226231, Final residual = 2.02682e-05, No Iterations 4
time step continuity errors : sum local = 1.01502e-05, global = -7.8559e-17, cumulative = -1.30921e-15
smoothSolver:  Solving for nuTilda, Initial residual = 0.00122701, Final residual = 5.58439e-06, No Iterations 8
ExecutionTime = 7.15 s  ClockTime = 7 s

forces wings output:
    sum of forces:
        pressure : (16.6807 47.1446 -1.90395e-18)
        viscous  : (0.234554 -0.111539 1.23322e-20)
        porous   : (0 0 0)
    sum of moments:
        pressure : (-2.35723 0.834036 5.11715)
        viscous  : (0.00557696 0.0117277 -0.0239517)
        porous   : (0 0 0)

Time = 81

smoothSolver:  Solving for Ux, Initial residual = 0.00184037, Final residual = 8.60169e-06, No Iterations 8
smoothSolver:  Solving for Uy, Initial residual = 0.00122381, Final residual = 7.48912e-06, No Iterations 8
GAMG:  Solving for p, Initial residual = 0.00223475, Final residual = 2.20852e-05, No Iterations 4
time step continuity errors : sum local = 1.1039e-05, global = -1.718e-16, cumulative = -1.48101e-15
smoothSolver:  Solving for nuTilda, Initial residual = 0.00119936, Final residual = 5.45208e-06, No Iterations 8
ExecutionTime = 7.23 s  ClockTime = 7 s

Time = 82

smoothSolver:  Solving for Ux, Initial residual = 0.00182598, Final residual = 8.5368e-06, No Iterations 8
smoothSolver:  Solving for Uy, Initial residual = 0.00121558, Final residual = 7.44188e-06, No Iterations 8
GAMG:  Solving for p, Initial residual = 0.00220865, Final residual = 1.98848e-05, No Iterations 4
time step continuity errors : sum local = 9.96417e-06, global = 8.04958e-17, cumulative = -1.40051e-15
smoothSolver:  Solving for nuTilda, Initial residual = 0.00117284, Final residual = 5.32185e-06, No Iterations 8
ExecutionTime = 7.32 s  ClockTime = 7 s

Time = 83

smoothSolver:  Solving for Ux, Initial residual = 0.00181293, Final residual = 8.47978e-06, No Iterations 8
smoothSolver:  Solving for Uy, Initial residual = 0.00120617, Final residual = 7.38983e-06, No Iterations 8
GAMG:  Solving for p, Initial residual = 0.00218598, Final residual = 1.9986e-05, No Iterations 4
time step continuity errors : sum local = 1.00243e-05, global = 2.94176e-16, cumulative = -1.10634e-15
smoothSolver:  Solving for nuTilda, Initial residual = 0.00114713, Final residual = 5.19674e-06, No Iterations 8
ExecutionTime = 7.39 s  ClockTime = 7 s

Time = 84

smoothSolver:  Solving for Ux, Initial residual = 0.00179999, Final residual = 8.42239e-06, No Iterations 8
smoothSolver:  Solving for Uy, Initial residual = 0.00119734, Final residual = 7.33934e-06, No Iterations 8
GAMG:  Solving for p, Initial residual = 0.00216499, Final residual = 8.3443e-06, No Iterations 5
time step continuity errors : sum local = 4.17738e-06, global = 2.53808e-16, cumulative = -8.52528e-16
smoothSolver:  Solving for nuTilda, Initial residual = 0.00112236, Final residual = 5.07594e-06, No Iterations 8
ExecutionTime = 7.48 s  ClockTime = 7 s

Time = 85

smoothSolver:  Solving for Ux, Initial residual = 0.00178734, Final residual = 8.36559e-06, No Iterations 8
smoothSolver:  Solving for Uy, Initial residual = 0.0011887, Final residual = 7.28931e-06, No Iterations 8
GAMG:  Solving for p, Initial residual = 0.00214417, Final residual = 2.02351e-05, No Iterations 4
time step continuity errors : sum local = 1.01379e-05, global = -2.47789e-16, cumulative = -1.10032e-15
smoothSolver:  Solving for nuTilda, Initial residual = 0.00109697, Final residual = 4.95986e-06, No Iterations 8
ExecutionTime = 7.56 s  ClockTime = 7 s

forces wings output:
    sum of forces:
        pressure : (16.9953 48.091 -1.9113e-18)
        viscous  : (0.223272 -0.107424 1.28232e-20)
        porous   : (0 0 0)
    sum of moments:
        pressure : (-2.40455 0.849765 5.18328)
        viscous  : (0.00537119 0.0111636 -0.0230462)
        porous   : (0 0 0)

Time = 86

smoothSolver:  Solving for Ux, Initial residual = 0.00177319, Final residual = 8.29847e-06, No Iterations 8
smoothSolver:  Solving for Uy, Initial residual = 0.00118231, Final residual = 7.24736e-06, No Iterations 8
GAMG:  Solving for p, Initial residual = 0.00212322, Final residual = 2.03099e-05, No Iterations 4
time step continuity errors : sum local = 1.01864e-05, global = -1.7316e-16, cumulative = -1.27348e-15
smoothSolver:  Solving for nuTilda, Initial residual = 0.001072, Final residual = 4.84811e-06, No Iterations 8
ExecutionTime = 7.65 s  ClockTime = 7 s

Time = 87

smoothSolver:  Solving for Ux, Initial residual = 0.00176063, Final residual = 8.24108e-06, No Iterations 8
smoothSolver:  Solving for Uy, Initial residual = 0.00117402, Final residual = 7.19877e-06, No Iterations 8
GAMG:  Solving for p, Initial residual = 0.00210642, Final residual = 2.08676e-05, No Iterations 4
time step continuity errors : sum local = 1.04735e-05, global = -2.68213e-16, cumulative = -1.54169e-15
smoothSolver:  Solving for nuTilda, Initial residual = 0.00104765, Final residual = 4.74037e-06, No Iterations 8
ExecutionTime = 7.73 s  ClockTime = 8 s

Time = 88

smoothSolver:  Solving for Ux, Initial residual = 0.0017489, Final residual = 8.18735e-06, No Iterations 8
smoothSolver:  Solving for Uy, Initial residual = 0.00116514, Final residual = 7.14696e-06, No Iterations 8
GAMG:  Solving for p, Initial residual = 0.00209258, Final residual = 8.90785e-06, No Iterations 5
time step continuity errors : sum local = 4.46737e-06, global = -9.66288e-17, cumulative = -1.63832e-15
smoothSolver:  Solving for nuTilda, Initial residual = 0.00102407, Final residual = 4.6364e-06, No Iterations 8
ExecutionTime = 7.81 s  ClockTime = 8 s

Time = 89

smoothSolver:  Solving for Ux, Initial residual = 0.00173752, Final residual = 8.13569e-06, No Iterations 8
smoothSolver:  Solving for Uy, Initial residual = 0.00115608, Final residual = 7.09378e-06, No Iterations 8
GAMG:  Solving for p, Initial residual = 0.00207915, Final residual = 2.03864e-05, No Iterations 4
time step continuity errors : sum local = 1.0246e-05, global = -4.79334e-18, cumulative = -1.64311e-15
smoothSolver:  Solving for nuTilda, Initial residual = 0.00100141, Final residual = 4.5363e-06, No Iterations 8
ExecutionTime = 7.9 s  ClockTime = 8 s

Time = 90

smoothSolver:  Solving for Ux, Initial residual = 0.00172498, Final residual = 8.07709e-06, No Iterations 8
smoothSolver:  Solving for Uy, Initial residual = 0.00114866, Final residual = 7.04652e-06, No Iterations 8
GAMG:  Solving for p, Initial residual = 0.0020651, Final residual = 9.58892e-06, No Iterations 5
time step continuity errors : sum local = 4.80761e-06, global = -1.37555e-16, cumulative = -1.78067e-15
smoothSolver:  Solving for nuTilda, Initial residual = 0.000979993, Final residual = 4.44138e-06, No Iterations 8
ExecutionTime = 7.98 s  ClockTime = 8 s

forces wings output:
    sum of forces:
        pressure : (17.3104 49.0403 -1.91894e-18)
        viscous  : (0.212457 -0.10344 1.30974e-20)
        porous   : (0 0 0)
    sum of moments:
        pressure : (-2.45202 0.865519 5.2487)
        viscous  : (0.00517199 0.0106228 -0.0221732)
        porous   : (0 0 0)

Time = 91

smoothSolver:  Solving for Ux, Initial residual = 0.00171289, Final residual = 8.02162e-06, No Iterations 8
smoothSolver:  Solving for Uy, Initial residual = 0.00114087, Final residual = 6.99837e-06, No Iterations 8
GAMG:  Solving for p, Initial residual = 0.00205203, Final residual = 2.02921e-05, No Iterations 4
time step continuity errors : sum local = 1.02089e-05, global = -2.66308e-16, cumulative = -2.04698e-15
smoothSolver:  Solving for nuTilda, Initial residual = 0.000959058, Final residual = 4.34952e-06, No Iterations 8
ExecutionTime = 8.07 s  ClockTime = 8 s

Time = 92

smoothSolver:  Solving for Ux, Initial residual = 0.00170075, Final residual = 7.96513e-06, No Iterations 8
smoothSolver:  Solving for Uy, Initial residual = 0.0011334, Final residual = 6.95094e-06, No Iterations 8
GAMG:  Solving for p, Initial residual = 0.00203976, Final residual = 1.08711e-05, No Iterations 5
time step continuity errors : sum local = 5.46086e-06, global = -1.80668e-16, cumulative = -2.22764e-15
smoothSolver:  Solving for nuTilda, Initial residual = 0.000938243, Final residual = 4.26039e-06, No Iterations 8
ExecutionTime = 8.16 s  ClockTime = 8 s

Time = 93

smoothSolver:  Solving for Ux, Initial residual = 0.00168964, Final residual = 7.91509e-06, No Iterations 8
smoothSolver:  Solving for Uy, Initial residual = 0.00112474, Final residual = 6.89903e-06, No Iterations 8
GAMG:  Solving for p, Initial residual = 0.00203013, Final residual = 1.15212e-05, No Iterations 5
time step continuity errors : sum local = 5.80022e-06, global = 3.56274e-17, cumulative = -2.19202e-15
smoothSolver:  Solving for nuTilda, Initial residual = 0.000918506, Final residual = 4.17277e-06, No Iterations 8
ExecutionTime = 8.24 s  ClockTime = 8 s

Time = 94

smoothSolver:  Solving for Ux, Initial residual = 0.00167852, Final residual = 7.86426e-06, No Iterations 8
smoothSolver:  Solving for Uy, Initial residual = 0.00111627, Final residual = 6.8472e-06, No Iterations 8
GAMG:  Solving for p, Initial residual = 0.00202081, Final residual = 1.18642e-05, No Iterations 5
time step continuity errors : sum local = 5.98728e-06, global = -7.92965e-17, cumulative = -2.27131e-15
smoothSolver:  Solving for nuTilda, Initial residual = 0.000900029, Final residual = 4.08825e-06, No Iterations 8
ExecutionTime = 8.33 s  ClockTime = 8 s

Time = 95

smoothSolver:  Solving for Ux, Initial residual = 0.00166705, Final residual = 7.81185e-06, No Iterations 8
smoothSolver:  Solving for Uy, Initial residual = 0.00110817, Final residual = 6.79652e-06, No Iterations 8
GAMG:  Solving for p, Initial residual = 0.00201085, Final residual = 1.31984e-05, No Iterations 5
time step continuity errors : sum local = 6.6691e-06, global = -8.24853e-17, cumulative = -2.3538e-15
smoothSolver:  Solving for nuTilda, Initial residual = 0.000882125, Final residual = 4.0026e-06, No Iterations 8
ExecutionTime = 8.41 s  ClockTime = 8 s

forces wings output:
    sum of forces:
        pressure : (17.6175 49.9704 -1.93057e-18)
        viscous  : (0.202279 -0.099687 1.3618e-20)
        porous   : (0 0 0)
    sum of moments:
        pressure : (-2.49852 0.880876 5.31001)
        viscous  : (0.00498435 0.0101139 -0.0213502)
        porous   : (0 0 0)

Time = 96

smoothSolver:  Solving for Ux, Initial residual = 0.00165545, Final residual = 7.75961e-06, No Iterations 8
smoothSolver:  Solving for Uy, Initial residual = 0.00110026, Final residual = 6.74679e-06, No Iterations 8
GAMG:  Solving for p, Initial residual = 0.00200156, Final residual = 1.14001e-05, No Iterations 5
time step continuity errors : sum local = 5.74789e-06, global = 1.31649e-16, cumulative = -2.22215e-15
smoothSolver:  Solving for nuTilda, Initial residual = 0.00086479, Final residual = 3.91974e-06, No Iterations 8
ExecutionTime = 8.5 s  ClockTime = 8 s

Time = 97

smoothSolver:  Solving for Ux, Initial residual = 0.00164407, Final residual = 7.70833e-06, No Iterations 8
smoothSolver:  Solving for Uy, Initial residual = 0.00109222, Final residual = 6.69653e-06, No Iterations 8
GAMG:  Solving for p, Initial residual = 0.00199274, Final residual = 1.1785e-05, No Iterations 5
time step continuity errors : sum local = 5.95071e-06, global = -8.10132e-17, cumulative = -2.30316e-15
smoothSolver:  Solving for nuTilda, Initial residual = 0.000848639, Final residual = 3.83655e-06, No Iterations 8
ExecutionTime = 8.59 s  ClockTime = 8 s

Time = 98

smoothSolver:  Solving for Ux, Initial residual = 0.0016328, Final residual = 7.65759e-06, No Iterations 8
smoothSolver:  Solving for Uy, Initial residual = 0.00108426, Final residual = 6.64628e-06, No Iterations 8
GAMG:  Solving for p, Initial residual = 0.00198446, Final residual = 1.31392e-05, No Iterations 5
time step continuity errors : sum local = 6.64505e-06, global = -1.67612e-17, cumulative = -2.31992e-15
smoothSolver:  Solving for nuTilda, Initial residual = 0.000831891, Final residual = 3.75599e-06, No Iterations 8
ExecutionTime = 8.67 s  ClockTime = 8 s

Time = 99

smoothSolver:  Solving for Ux, Initial residual = 0.00162158, Final residual = 7.60772e-06, No Iterations 8
smoothSolver:  Solving for Uy, Initial residual = 0.00107628, Final residual = 6.59577e-06, No Iterations 8
GAMG:  Solving for p, Initial residual = 0.00197592, Final residual = 1.19743e-05, No Iterations 5
time step continuity errors : sum local = 6.05206e-06, global = -1.115e-16, cumulative = -2.43142e-15
smoothSolver:  Solving for nuTilda, Initial residual = 0.000816409, Final residual = 3.67695e-06, No Iterations 8
ExecutionTime = 8.76 s  ClockTime = 9 s

Time = 100

smoothSolver:  Solving for Ux, Initial residual = 0.00161038, Final residual = 7.55817e-06, No Iterations 8
smoothSolver:  Solving for Uy, Initial residual = 0.00106816, Final residual = 6.54468e-06, No Iterations 8
GAMG:  Solving for p, Initial residual = 0.00196729, Final residual = 1.24446e-05, No Iterations 5
time step continuity errors : sum local = 6.30394e-06, global = -3.87399e-17, cumulative = -2.47016e-15
smoothSolver:  Solving for nuTilda, Initial residual = 0.000801141, Final residual = 3.60207e-06, No Iterations 8
ExecutionTime = 8.84 s  ClockTime = 9 s

forces wings output:
    sum of forces:
        pressure : (17.9207 50.8875 -1.94063e-18)
        viscous  : (0.192772 -0.0962009 1.40598e-20)
        porous   : (0 0 0)
    sum of moments:
        pressure : (-2.54437 0.896033 5.37104)
        viscous  : (0.00481005 0.00963859 -0.0205862)
        porous   : (0 0 0)

Time = 101

smoothSolver:  Solving for Ux, Initial residual = 0.00159908, Final residual = 7.50842e-06, No Iterations 8
smoothSolver:  Solving for Uy, Initial residual = 0.00106013, Final residual = 6.49398e-06, No Iterations 8
GAMG:  Solving for p, Initial residual = 0.00195883, Final residual = 1.45045e-05, No Iterations 5
time step continuity errors : sum local = 7.35667e-06, global = 9.47341e-17, cumulative = -2.37543e-15
smoothSolver:  Solving for nuTilda, Initial residual = 0.000785839, Final residual = 3.53152e-06, No Iterations 8
ExecutionTime = 8.94 s  ClockTime = 9 s

Time = 102

smoothSolver:  Solving for Ux, Initial residual = 0.00158767, Final residual = 7.45887e-06, No Iterations 8
smoothSolver:  Solving for Uy, Initial residual = 0.00105219, Final residual = 6.44382e-06, No Iterations 8
GAMG:  Solving for p, Initial residual = 0.00194915, Final residual = 1.22488e-05, No Iterations 5
time step continuity errors : sum local = 6.20192e-06, global = 1.41028e-17, cumulative = -2.36133e-15
smoothSolver:  Solving for nuTilda, Initial residual = 0.000771649, Final residual = 3.46382e-06, No Iterations 8
ExecutionTime = 9.02 s  ClockTime = 9 s

Time = 103

smoothSolver:  Solving for Ux, Initial residual = 0.00157639, Final residual = 7.40948e-06, No Iterations 8
smoothSolver:  Solving for Uy, Initial residual = 0.0010441, Final residual = 6.39293e-06, No Iterations 8
GAMG:  Solving for p, Initial residual = 0.00193965, Final residual = 1.2543e-05, No Iterations 5
time step continuity errors : sum local = 6.3635e-06, global = -1.3589e-16, cumulative = -2.49722e-15
smoothSolver:  Solving for nuTilda, Initial residual = 0.000757728, Final residual = 3.39961e-06, No Iterations 8
ExecutionTime = 9.1 s  ClockTime = 9 s

Time = 104

smoothSolver:  Solving for Ux, Initial residual = 0.00156511, Final residual = 7.36e-06, No Iterations 8
smoothSolver:  Solving for Uy, Initial residual = 0.00103613, Final residual = 6.34232e-06, No Iterations 8
GAMG:  Solving for p, Initial residual = 0.00192947, Final residual = 1.47007e-05, No Iterations 5
time step continuity errors : sum local = 7.46961e-06, global = 9.40278e-17, cumulative = -2.40319e-15
smoothSolver:  Solving for nuTilda, Initial residual = 0.000744226, Final residual = 3.33723e-06, No Iterations 8
ExecutionTime = 9.19 s  ClockTime = 9 s

Time = 105

smoothSolver:  Solving for Ux, Initial residual = 0.00155376, Final residual = 7.31101e-06, No Iterations 8
smoothSolver:  Solving for Uy, Initial residual = 0.00102815, Final residual = 6.29151e-06, No Iterations 8
GAMG:  Solving for p, Initial residual = 0.00191885, Final residual = 1.23377e-05, No Iterations 5
time step continuity errors : sum local = 6.26374e-06, global = -1.41567e-16, cumulative = -2.54476e-15
smoothSolver:  Solving for nuTilda, Initial residual = 0.00073123, Final residual = 3.27742e-06, No Iterations 8
ExecutionTime = 9.27 s  ClockTime = 9 s

forces wings output:
    sum of forces:
        pressure : (18.2136 51.7789 -1.95843e-18)
        viscous  : (0.18376 -0.0929001 1.3832e-20)
        porous   : (0 0 0)
    sum of moments:
        pressure : (-2.58895 0.91068 5.42717)
        viscous  : (0.004645 0.00918799 -0.0198641)
        porous   : (0 0 0)

Time = 106

smoothSolver:  Solving for Ux, Initial residual = 0.00154252, Final residual = 7.26238e-06, No Iterations 8
smoothSolver:  Solving for Uy, Initial residual = 0.00101984, Final residual = 6.23939e-06, No Iterations 8
GAMG:  Solving for p, Initial residual = 0.00190509, Final residual = 1.37983e-05, No Iterations 5
time step continuity errors : sum local = 7.01625e-06, global = -2.59591e-16, cumulative = -2.80435e-15
smoothSolver:  Solving for nuTilda, Initial residual = 0.000718614, Final residual = 3.21991e-06, No Iterations 8
ExecutionTime = 9.36 s  ClockTime = 9 s

Time = 107

smoothSolver:  Solving for Ux, Initial residual = 0.00153123, Final residual = 7.21476e-06, No Iterations 8
smoothSolver:  Solving for Uy, Initial residual = 0.00101136, Final residual = 6.1863e-06, No Iterations 8
GAMG:  Solving for p, Initial residual = 0.0018905, Final residual = 1.20255e-05, No Iterations 5
time step continuity errors : sum local = 6.11331e-06, global = 6.45535e-17, cumulative = -2.73979e-15
smoothSolver:  Solving for nuTilda, Initial residual = 0.000706619, Final residual = 3.16336e-06, No Iterations 8
ExecutionTime = 9.45 s  ClockTime = 9 s

Time = 108

smoothSolver:  Solving for Ux, Initial residual = 0.00152005, Final residual = 7.16701e-06, No Iterations 8
smoothSolver:  Solving for Uy, Initial residual = 0.00100282, Final residual = 6.13295e-06, No Iterations 8
GAMG:  Solving for p, Initial residual = 0.00187618, Final residual = 1.38387e-05, No Iterations 5
time step continuity errors : sum local = 7.04775e-06, global = -6.31403e-17, cumulative = -2.80293e-15
smoothSolver:  Solving for nuTilda, Initial residual = 0.000694226, Final residual = 3.10863e-06, No Iterations 8
ExecutionTime = 9.54 s  ClockTime = 9 s

Time = 109

smoothSolver:  Solving for Ux, Initial residual = 0.00150878, Final residual = 7.12e-06, No Iterations 8
smoothSolver:  Solving for Uy, Initial residual = 0.000994433, Final residual = 6.08021e-06, No Iterations 8
GAMG:  Solving for p, Initial residual = 0.00186328, Final residual = 1.1974e-05, No Iterations 5
time step continuity errors : sum local = 6.09775e-06, global = 1.6088e-16, cumulative = -2.64205e-15
smoothSolver:  Solving for nuTilda, Initial residual = 0.000682542, Final residual = 3.05558e-06, No Iterations 8
ExecutionTime = 9.62 s  ClockTime = 9 s

Time = 110

smoothSolver:  Solving for Ux, Initial residual = 0.00149754, Final residual = 7.07259e-06, No Iterations 8
smoothSolver:  Solving for Uy, Initial residual = 0.000986108, Final residual = 6.02795e-06, No Iterations 8
GAMG:  Solving for p, Initial residual = 0.00185008, Final residual = 1.39667e-05, No Iterations 5
time step continuity errors : sum local = 7.1219e-06, global = -1.2415e-16, cumulative = -2.7662e-15
smoothSolver:  Solving for nuTilda, Initial residual = 0.000671381, Final residual = 3.00409e-06, No Iterations 8
ExecutionTime = 9.7 s  ClockTime = 9 s

forces wings output:
    sum of forces:
        pressure : (18.4965 52.6609 -1.98019e-18)
        viscous  : (0.175122 -0.0897255 1.39393e-20)
        porous   : (0 0 0)
    sum of moments:
        pressure : (-2.63304 0.924824 5.47022)
        viscous  : (0.00448627 0.00875612 -0.0191711)
        porous   : (0 0 0)

Time = 111

smoothSolver:  Solving for Ux, Initial residual = 0.0014862, Final residual = 7.02532e-06, No Iterations 8
smoothSolver:  Solving for Uy, Initial residual = 0.000977893, Final residual = 5.9763e-06, No Iterations 8
GAMG:  Solving for p, Initial residual = 0.00183643, Final residual = 1.19073e-05, No Iterations 5
time step continuity errors : sum local = 6.0546e-06, global = -2.07442e-16, cumulative = -2.97365e-15
smoothSolver:  Solving for nuTilda, Initial residual = 0.000660746, Final residual = 2.95476e-06, No Iterations 8
ExecutionTime = 9.8 s  ClockTime = 10 s

Time = 112

smoothSolver:  Solving for Ux, Initial residual = 0.00147498, Final residual = 6.97808e-06, No Iterations 8
smoothSolver:  Solving for Uy, Initial residual = 0.000969572, Final residual = 5.9246e-06, No Iterations 8
GAMG:  Solving for p, Initial residual = 0.00182228, Final residual = 1.16549e-05, No Iterations 5
time step continuity errors : sum local = 5.9394e-06, global = -9.69076e-17, cumulative = -3.07055e-15
smoothSolver:  Solving for nuTilda, Initial residual = 0.000650057, Final residual = 2.90605e-06, No Iterations 8
ExecutionTime = 9.89 s  ClockTime = 10 s

Time = 113

smoothSolver:  Solving for Ux, Initial residual = 0.00146372, Final residual = 6.93029e-06, No Iterations 8
smoothSolver:  Solving for Uy, Initial residual = 0.000961446, Final residual = 5.87353e-06, No Iterations 8
GAMG:  Solving for p, Initial residual = 0.00180726, Final residual = 1.34243e-05, No Iterations 5
time step continuity errors : sum local = 6.85583e-06, global = -1.64106e-16, cumulative = -3.23466e-15
smoothSolver:  Solving for nuTilda, Initial residual = 0.000639911, Final residual = 2.85782e-06, No Iterations 8
ExecutionTime = 9.97 s  ClockTime = 10 s

Time = 114

smoothSolver:  Solving for Ux, Initial residual = 0.00145239, Final residual = 6.88297e-06, No Iterations 8
smoothSolver:  Solving for Uy, Initial residual = 0.000953402, Final residual = 5.8232e-06, No Iterations 8
GAMG:  Solving for p, Initial residual = 0.00179143, Final residual = 1.21645e-05, No Iterations 5
time step continuity errors : sum local = 6.20389e-06, global = -1.3338e-16, cumulative = -3.36804e-15
smoothSolver:  Solving for nuTilda, Initial residual = 0.000629427, Final residual = 2.81059e-06, No Iterations 8
ExecutionTime = 10.06 s  ClockTime = 10 s

Time = 115

smoothSolver:  Solving for Ux, Initial residual = 0.00144109, Final residual = 6.83621e-06, No Iterations 8
smoothSolver:  Solving for Uy, Initial residual = 0.000945223, Final residual = 5.77223e-06, No Iterations 8
GAMG:  Solving for p, Initial residual = 0.00177483, Final residual = 1.15104e-05, No Iterations 5
time step continuity errors : sum local = 5.87965e-06, global = 5.60769e-17, cumulative = -3.31196e-15
smoothSolver:  Solving for nuTilda, Initial residual = 0.000618578, Final residual = 2.76434e-06, No Iterations 8
ExecutionTime = 10.14 s  ClockTime = 10 s

forces wings output:
    sum of forces:
        pressure : (18.7592 53.4803 -1.99867e-18)
        viscous  : (0.166906 -0.0866888 1.42216e-20)
        porous   : (0 0 0)
    sum of moments:
        pressure : (-2.67402 0.93796 5.51)
        viscous  : (0.00433444 0.00834531 -0.0185075)
        porous   : (0 0 0)

Time = 116

smoothSolver:  Solving for Ux, Initial residual = 0.00142981, Final residual = 6.78899e-06, No Iterations 8
smoothSolver:  Solving for Uy, Initial residual = 0.000937027, Final residual = 5.72126e-06, No Iterations 8
GAMG:  Solving for p, Initial residual = 0.00175747, Final residual = 1.34233e-05, No Iterations 5
time step continuity errors : sum local = 6.86894e-06, global = 9.57456e-17, cumulative = -3.21622e-15
smoothSolver:  Solving for nuTilda, Initial residual = 0.00060836, Final residual = 2.71884e-06, No Iterations 8
ExecutionTime = 10.23 s  ClockTime = 10 s

Time = 117

smoothSolver:  Solving for Ux, Initial residual = 0.00141844, Final residual = 6.74241e-06, No Iterations 8
smoothSolver:  Solving for Uy, Initial residual = 0.000928942, Final residual = 5.67078e-06, No Iterations 8
GAMG:  Solving for p, Initial residual = 0.00173975, Final residual = 1.20057e-05, No Iterations 5
time step continuity errors : sum local = 6.13601e-06, global = 1.16321e-16, cumulative = -3.0999e-15
smoothSolver:  Solving for nuTilda, Initial residual = 0.000599123, Final residual = 2.67439e-06, No Iterations 8
ExecutionTime = 10.32 s  ClockTime = 10 s

Time = 118

smoothSolver:  Solving for Ux, Initial residual = 0.00140716, Final residual = 6.69599e-06, No Iterations 8
smoothSolver:  Solving for Uy, Initial residual = 0.000920748, Final residual = 5.6203e-06, No Iterations 8
GAMG:  Solving for p, Initial residual = 0.00172223, Final residual = 1.12359e-05, No Iterations 5
time step continuity errors : sum local = 5.75084e-06, global = 2.66117e-18, cumulative = -3.09723e-15
smoothSolver:  Solving for nuTilda, Initial residual = 0.000589642, Final residual = 2.63043e-06, No Iterations 8
ExecutionTime = 10.4 s  ClockTime = 10 s

Time = 119

smoothSolver:  Solving for Ux, Initial residual = 0.00139584, Final residual = 6.64923e-06, No Iterations 8
smoothSolver:  Solving for Uy, Initial residual = 0.000912669, Final residual = 5.57035e-06, No Iterations 8
GAMG:  Solving for p, Initial residual = 0.00170339, Final residual = 1.30577e-05, No Iterations 5
time step continuity errors : sum local = 6.69399e-06, global = -2.15391e-16, cumulative = -3.31263e-15
smoothSolver:  Solving for nuTilda, Initial residual = 0.000580688, Final residual = 2.58652e-06, No Iterations 8
ExecutionTime = 10.49 s  ClockTime = 10 s

Time = 120

smoothSolver:  Solving for Ux, Initial residual = 0.00138445, Final residual = 6.60252e-06, No Iterations 8
smoothSolver:  Solving for Uy, Initial residual = 0.000904666, Final residual = 5.52122e-06, No Iterations 8
GAMG:  Solving for p, Initial residual = 0.00168372, Final residual = 1.18228e-05, No Iterations 5
time step continuity errors : sum local = 6.05604e-06, global = -1.94167e-18, cumulative = -3.31457e-15
smoothSolver:  Solving for nuTilda, Initial residual = 0.000570674, Final residual = 2.54499e-06, No Iterations 8
ExecutionTime = 10.57 s  ClockTime = 10 s

forces wings output:
    sum of forces:
        pressure : (19.0007 54.2464 -2.02466e-18)
        viscous  : (0.159084 -0.0837991 1.43397e-20)
        porous   : (0 0 0)
    sum of moments:
        pressure : (-2.71232 0.950034 5.53971)
        viscous  : (0.00418995 0.00795418 -0.0178744)
        porous   : (0 0 0)

Time = 121

smoothSolver:  Solving for Ux, Initial residual = 0.00137313, Final residual = 6.55616e-06, No Iterations 8
smoothSolver:  Solving for Uy, Initial residual = 0.000896629, Final residual = 5.47208e-06, No Iterations 8
GAMG:  Solving for p, Initial residual = 0.00166315, Final residual = 1.04412e-05, No Iterations 5
[...]

forces wings output:
    sum of forces:
        pressure : (12.8755 31.778 -3.29229e-19)
        viscous  : (0.0547297 -0.0295313 1.98079e-20)
        porous   : (0 0 0)
    sum of moments:
        pressure : (-1.5889 0.643775 6.3969)
        viscous  : (0.00147657 0.00273649 -0.00704777)
        porous   : (0 0 0)

Time = 4971

smoothSolver:  Solving for Ux, Initial residual = 1.45393e-06, Final residual = 6.81223e-09, No Iterations 8
smoothSolver:  Solving for Uy, Initial residual = 6.46571e-06, Final residual = 3.69106e-08, No Iterations 8
GAMG:  Solving for p, Initial residual = 1.25832e-05, Final residual = 5.45603e-07, No Iterations 3
time step continuity errors : sum local = 2.79625e-07, global = -1.14902e-16, cumulative = 3.2463e-14
smoothSolver:  Solving for nuTilda, Initial residual = 2.11656e-06, Final residual = 6.2849e-09, No Iterations 8
ExecutionTime = 419.33 s  ClockTime = 419 s

Time = 4972

smoothSolver:  Solving for Ux, Initial residual = 1.45307e-06, Final residual = 6.77612e-09, No Iterations 8
smoothSolver:  Solving for Uy, Initial residual = 6.69493e-06, Final residual = 3.82016e-08, No Iterations 8
GAMG:  Solving for p, Initial residual = 1.2503e-05, Final residual = 8.39052e-07, No Iterations 2
time step continuity errors : sum local = 4.31273e-07, global = 3.70439e-17, cumulative = 3.25001e-14
smoothSolver:  Solving for nuTilda, Initial residual = 2.09681e-06, Final residual = 6.23475e-09, No Iterations 8
ExecutionTime = 419.4 s  ClockTime = 419 s

Time = 4973

smoothSolver:  Solving for Ux, Initial residual = 1.44721e-06, Final residual = 6.7489e-09, No Iterations 8
smoothSolver:  Solving for Uy, Initial residual = 6.55296e-06, Final residual = 3.72436e-08, No Iterations 8
GAMG:  Solving for p, Initial residual = 1.24619e-05, Final residual = 7.412e-07, No Iterations 2
time step continuity errors : sum local = 3.79567e-07, global = -1.28611e-17, cumulative = 3.24872e-14
smoothSolver:  Solving for nuTilda, Initial residual = 2.08441e-06, Final residual = 6.18439e-09, No Iterations 8
ExecutionTime = 419.48 s  ClockTime = 419 s

Time = 4974

smoothSolver:  Solving for Ux, Initial residual = 1.43057e-06, Final residual = 6.71286e-09, No Iterations 8
smoothSolver:  Solving for Uy, Initial residual = 6.49072e-06, Final residual = 3.70717e-08, No Iterations 8
GAMG:  Solving for p, Initial residual = 1.23228e-05, Final residual = 4.23805e-07, No Iterations 3
time step continuity errors : sum local = 2.21616e-07, global = -2.29048e-16, cumulative = 3.22581e-14
smoothSolver:  Solving for nuTilda, Initial residual = 2.06115e-06, Final residual = 6.13009e-09, No Iterations 8
ExecutionTime = 419.55 s  ClockTime = 419 s

Time = 4975

smoothSolver:  Solving for Ux, Initial residual = 1.44621e-06, Final residual = 6.83543e-09, No Iterations 8
smoothSolver:  Solving for Uy, Initial residual = 6.3007e-06, Final residual = 3.61213e-08, No Iterations 8
GAMG:  Solving for p, Initial residual = 1.2241e-05, Final residual = 8.3498e-07, No Iterations 2
time step continuity errors : sum local = 4.28498e-07, global = -2.70483e-16, cumulative = 3.19877e-14
smoothSolver:  Solving for nuTilda, Initial residual = 2.04865e-06, Final residual = 6.07826e-09, No Iterations 8
ExecutionTime = 419.63 s  ClockTime = 419 s

forces wings output:
    sum of forces:
        pressure : (12.8744 31.7748 -3.29166e-19)
        viscous  : (0.0547439 -0.0295358 1.98057e-20)
        porous   : (0 0 0)
    sum of moments:
        pressure : (-1.58874 0.64372 6.39659)
        viscous  : (0.00147679 0.00273719 -0.00704873)
        porous   : (0 0 0)

Time = 4976

smoothSolver:  Solving for Ux, Initial residual = 1.43477e-06, Final residual = 6.8015e-09, No Iterations 8
smoothSolver:  Solving for Uy, Initial residual = 6.30102e-06, Final residual = 3.62441e-08, No Iterations 8
GAMG:  Solving for p, Initial residual = 1.21721e-05, Final residual = 8.472e-07, No Iterations 2
time step continuity errors : sum local = 4.34739e-07, global = 8.56039e-17, cumulative = 3.20733e-14
smoothSolver:  Solving for nuTilda, Initial residual = 2.02631e-06, Final residual = 6.02428e-09, No Iterations 8
ExecutionTime = 419.71 s  ClockTime = 420 s

Time = 4977

smoothSolver:  Solving for Ux, Initial residual = 1.42756e-06, Final residual = 6.75766e-09, No Iterations 8
smoothSolver:  Solving for Uy, Initial residual = 6.204e-06, Final residual = 3.54712e-08, No Iterations 8
GAMG:  Solving for p, Initial residual = 1.20864e-05, Final residual = 9.73447e-07, No Iterations 2
time step continuity errors : sum local = 4.99078e-07, global = -1.57444e-16, cumulative = 3.19158e-14
smoothSolver:  Solving for nuTilda, Initial residual = 2.01195e-06, Final residual = 5.96928e-09, No Iterations 8
ExecutionTime = 419.79 s  ClockTime = 420 s

Time = 4978

smoothSolver:  Solving for Ux, Initial residual = 1.41864e-06, Final residual = 6.71683e-09, No Iterations 8
smoothSolver:  Solving for Uy, Initial residual = 6.27867e-06, Final residual = 3.59727e-08, No Iterations 8
GAMG:  Solving for p, Initial residual = 1.20031e-05, Final residual = 9.35192e-07, No Iterations 2
time step continuity errors : sum local = 4.79318e-07, global = -4.62311e-17, cumulative = 3.18696e-14
smoothSolver:  Solving for nuTilda, Initial residual = 1.9893e-06, Final residual = 5.9141e-09, No Iterations 8
ExecutionTime = 419.86 s  ClockTime = 420 s

Time = 4979

smoothSolver:  Solving for Ux, Initial residual = 1.41635e-06, Final residual = 6.69518e-09, No Iterations 8
smoothSolver:  Solving for Uy, Initial residual = 6.1978e-06, Final residual = 3.53055e-08, No Iterations 8
GAMG:  Solving for p, Initial residual = 1.19503e-05, Final residual = 8.91254e-07, No Iterations 2
time step continuity errors : sum local = 4.56545e-07, global = -2.46847e-16, cumulative = 3.16227e-14
smoothSolver:  Solving for nuTilda, Initial residual = 1.97509e-06, Final residual = 5.85882e-09, No Iterations 8
ExecutionTime = 419.94 s  ClockTime = 420 s

Time = 4980

smoothSolver:  Solving for Ux, Initial residual = 1.4075e-06, Final residual = 6.67577e-09, No Iterations 8
smoothSolver:  Solving for Uy, Initial residual = 6.23047e-06, Final residual = 3.56104e-08, No Iterations 8
GAMG:  Solving for p, Initial residual = 1.18153e-05, Final residual = 9.50286e-07, No Iterations 2
time step continuity errors : sum local = 4.87881e-07, global = -1.61913e-16, cumulative = 3.14608e-14
smoothSolver:  Solving for nuTilda, Initial residual = 1.95163e-06, Final residual = 5.80216e-09, No Iterations 8
ExecutionTime = 420.01 s  ClockTime = 420 s

forces wings output:
    sum of forces:
        pressure : (12.8733 31.7715 -3.29114e-19)
        viscous  : (0.0547481 -0.0295376 1.98084e-20)
        porous   : (0 0 0)
    sum of moments:
        pressure : (-1.58858 0.643666 6.39637)
        viscous  : (0.00147688 0.00273741 -0.0070489)
        porous   : (0 0 0)

Time = 4981

smoothSolver:  Solving for Ux, Initial residual = 1.40928e-06, Final residual = 6.69779e-09, No Iterations 8
smoothSolver:  Solving for Uy, Initial residual = 6.1138e-06, Final residual = 3.48439e-08, No Iterations 8
GAMG:  Solving for p, Initial residual = 1.17545e-05, Final residual = 8.18675e-07, No Iterations 2
time step continuity errors : sum local = 4.19334e-07, global = 2.6903e-16, cumulative = 3.17299e-14
smoothSolver:  Solving for nuTilda, Initial residual = 1.93749e-06, Final residual = 5.74646e-09, No Iterations 8
ExecutionTime = 420.09 s  ClockTime = 420 s

Time = 4982

smoothSolver:  Solving for Ux, Initial residual = 1.39902e-06, Final residual = 6.67784e-09, No Iterations 8
smoothSolver:  Solving for Uy, Initial residual = 6.1144e-06, Final residual = 3.50152e-08, No Iterations 8
GAMG:  Solving for p, Initial residual = 1.16133e-05, Final residual = 8.81644e-07, No Iterations 2
time step continuity errors : sum local = 4.52163e-07, global = -1.4892e-16, cumulative = 3.15809e-14
smoothSolver:  Solving for nuTilda, Initial residual = 1.91362e-06, Final residual = 5.68895e-09, No Iterations 8
ExecutionTime = 420.17 s  ClockTime = 420 s

Time = 4983

smoothSolver:  Solving for Ux, Initial residual = 1.39782e-06, Final residual = 6.68091e-09, No Iterations 8
smoothSolver:  Solving for Uy, Initial residual = 5.98648e-06, Final residual = 3.41805e-08, No Iterations 8
GAMG:  Solving for p, Initial residual = 1.1514e-05, Final residual = 8.2205e-07, No Iterations 2
time step continuity errors : sum local = 4.21643e-07, global = -5.35505e-17, cumulative = 3.15274e-14
smoothSolver:  Solving for nuTilda, Initial residual = 1.89881e-06, Final residual = 5.63189e-09, No Iterations 8
ExecutionTime = 420.24 s  ClockTime = 420 s

Time = 4984

smoothSolver:  Solving for Ux, Initial residual = 1.38815e-06, Final residual = 6.65883e-09, No Iterations 8
smoothSolver:  Solving for Uy, Initial residual = 5.99599e-06, Final residual = 3.4381e-08, No Iterations 8
GAMG:  Solving for p, Initial residual = 1.14041e-05, Final residual = 8.58211e-07, No Iterations 2
time step continuity errors : sum local = 4.39788e-07, global = -3.93973e-17, cumulative = 3.1488e-14
smoothSolver:  Solving for nuTilda, Initial residual = 1.87455e-06, Final residual = 5.5734e-09, No Iterations 8
ExecutionTime = 420.32 s  ClockTime = 420 s

Time = 4985

smoothSolver:  Solving for Ux, Initial residual = 1.38525e-06, Final residual = 6.64373e-09, No Iterations 8
smoothSolver:  Solving for Uy, Initial residual = 5.87832e-06, Final residual = 3.35472e-08, No Iterations 8
GAMG:  Solving for p, Initial residual = 1.13297e-05, Final residual = 8.42975e-07, No Iterations 2
time step continuity errors : sum local = 4.32236e-07, global = 2.21784e-16, cumulative = 3.17098e-14
smoothSolver:  Solving for nuTilda, Initial residual = 1.85916e-06, Final residual = 5.51475e-09, No Iterations 8
ExecutionTime = 420.4 s  ClockTime = 420 s

forces wings output:
    sum of forces:
        pressure : (12.8725 31.7694 -3.29105e-19)
        viscous  : (0.0547616 -0.0295419 1.98057e-20)
        porous   : (0 0 0)
    sum of moments:
        pressure : (-1.58847 0.643626 6.39607)
        viscous  : (0.0014771 0.00273808 -0.00704982)
        porous   : (0 0 0)

Time = 4986

smoothSolver:  Solving for Ux, Initial residual = 1.37729e-06, Final residual = 6.62637e-09, No Iterations 8
smoothSolver:  Solving for Uy, Initial residual = 5.89545e-06, Final residual = 3.37808e-08, No Iterations 8
GAMG:  Solving for p, Initial residual = 1.12215e-05, Final residual = 8.65679e-07, No Iterations 2
time step continuity errors : sum local = 4.44044e-07, global = 3.61318e-16, cumulative = 3.20711e-14
smoothSolver:  Solving for nuTilda, Initial residual = 1.83452e-06, Final residual = 5.45474e-09, No Iterations 8
ExecutionTime = 420.48 s  ClockTime = 420 s

Time = 4987

smoothSolver:  Solving for Ux, Initial residual = 1.37616e-06, Final residual = 6.61756e-09, No Iterations 8
smoothSolver:  Solving for Uy, Initial residual = 5.7822e-06, Final residual = 3.2982e-08, No Iterations 8
GAMG:  Solving for p, Initial residual = 1.11561e-05, Final residual = 8.23449e-07, No Iterations 2
time step continuity errors : sum local = 4.21726e-07, global = 5.36214e-17, cumulative = 3.21247e-14
smoothSolver:  Solving for nuTilda, Initial residual = 1.81898e-06, Final residual = 5.39499e-09, No Iterations 8
ExecutionTime = 420.55 s  ClockTime = 420 s

Time = 4988

smoothSolver:  Solving for Ux, Initial residual = 1.36813e-06, Final residual = 6.60391e-09, No Iterations 8
smoothSolver:  Solving for Uy, Initial residual = 5.80065e-06, Final residual = 3.32342e-08, No Iterations 8
GAMG:  Solving for p, Initial residual = 1.10304e-05, Final residual = 8.44047e-07, No Iterations 2
time step continuity errors : sum local = 4.33566e-07, global = -7.52938e-19, cumulative = 3.2124e-14
smoothSolver:  Solving for nuTilda, Initial residual = 1.79401e-06, Final residual = 5.33394e-09, No Iterations 8
ExecutionTime = 420.63 s  ClockTime = 420 s

Time = 4989

smoothSolver:  Solving for Ux, Initial residual = 1.3669e-06, Final residual = 6.60268e-09, No Iterations 8
smoothSolver:  Solving for Uy, Initial residual = 5.68877e-06, Final residual = 3.24518e-08, No Iterations 8
GAMG:  Solving for p, Initial residual = 1.09519e-05, Final residual = 7.89633e-07, No Iterations 2
time step continuity errors : sum local = 4.04324e-07, global = -2.01282e-16, cumulative = 3.19227e-14
smoothSolver:  Solving for nuTilda, Initial residual = 1.77821e-06, Final residual = 5.27326e-09, No Iterations 8
ExecutionTime = 420.71 s  ClockTime = 421 s

Time = 4990

smoothSolver:  Solving for Ux, Initial residual = 1.3584e-06, Final residual = 6.59197e-09, No Iterations 8
smoothSolver:  Solving for Uy, Initial residual = 5.70759e-06, Final residual = 3.26996e-08, No Iterations 8
GAMG:  Solving for p, Initial residual = 1.08212e-05, Final residual = 8.13736e-07, No Iterations 2
time step continuity errors : sum local = 4.17357e-07, global = 1.41003e-16, cumulative = 3.20637e-14
smoothSolver:  Solving for nuTilda, Initial residual = 1.75286e-06, Final residual = 5.21143e-09, No Iterations 8
ExecutionTime = 420.78 s  ClockTime = 421 s

forces wings output:
    sum of forces:
        pressure : (12.8714 31.7659 -3.29071e-19)
        viscous  : (0.0547649 -0.0295435 1.98078e-20)
        porous   : (0 0 0)
    sum of moments:
        pressure : (-1.5883 0.64357 6.39588)
        viscous  : (0.00147717 0.00273825 -0.00704992)
        porous   : (0 0 0)

Time = 4991

smoothSolver:  Solving for Ux, Initial residual = 1.35602e-06, Final residual = 6.58446e-09, No Iterations 8
smoothSolver:  Solving for Uy, Initial residual = 5.59269e-06, Final residual = 3.18901e-08, No Iterations 8
GAMG:  Solving for p, Initial residual = 1.07381e-05, Final residual = 7.79896e-07, No Iterations 2
time step continuity errors : sum local = 3.99533e-07, global = -1.35193e-16, cumulative = 3.19285e-14
smoothSolver:  Solving for nuTilda, Initial residual = 1.73663e-06, Final residual = 5.14968e-09, No Iterations 8
ExecutionTime = 420.86 s  ClockTime = 421 s

Time = 4992

smoothSolver:  Solving for Ux, Initial residual = 1.3481e-06, Final residual = 6.57285e-09, No Iterations 8
smoothSolver:  Solving for Uy, Initial residual = 5.6061e-06, Final residual = 3.21086e-08, No Iterations 8
GAMG:  Solving for p, Initial residual = 1.06255e-05, Final residual = 8.03236e-07, No Iterations 2
time step continuity errors : sum local = 4.117e-07, global = 6.44882e-17, cumulative = 3.1993e-14
smoothSolver:  Solving for nuTilda, Initial residual = 1.71103e-06, Final residual = 5.08703e-09, No Iterations 8
ExecutionTime = 420.94 s  ClockTime = 421 s

Time = 4993

smoothSolver:  Solving for Ux, Initial residual = 1.34565e-06, Final residual = 6.56027e-09, No Iterations 8
smoothSolver:  Solving for Uy, Initial residual = 5.48832e-06, Final residual = 3.12813e-08, No Iterations 8
GAMG:  Solving for p, Initial residual = 1.05524e-05, Final residual = 7.83109e-07, No Iterations 2
time step continuity errors : sum local = 4.01588e-07, global = -1.21312e-17, cumulative = 3.19808e-14
smoothSolver:  Solving for nuTilda, Initial residual = 1.69461e-06, Final residual = 5.02461e-09, No Iterations 8
ExecutionTime = 421.02 s  ClockTime = 421 s

Time = 4994

smoothSolver:  Solving for Ux, Initial residual = 1.3385e-06, Final residual = 6.55324e-09, No Iterations 8
smoothSolver:  Solving for Uy, Initial residual = 5.4986e-06, Final residual = 3.14927e-08, No Iterations 8
GAMG:  Solving for p, Initial residual = 1.044e-05, Final residual = 7.96459e-07, No Iterations 2
time step continuity errors : sum local = 4.08393e-07, global = 2.974e-16, cumulative = 3.22782e-14
smoothSolver:  Solving for nuTilda, Initial residual = 1.66869e-06, Final residual = 4.96135e-09, No Iterations 8
ExecutionTime = 421.09 s  ClockTime = 421 s

Time = 4995

smoothSolver:  Solving for Ux, Initial residual = 1.33659e-06, Final residual = 6.54423e-09, No Iterations 8
smoothSolver:  Solving for Uy, Initial residual = 5.38024e-06, Final residual = 3.06677e-08, No Iterations 8
GAMG:  Solving for p, Initial residual = 1.03657e-05, Final residual = 7.63585e-07, No Iterations 2
time step continuity errors : sum local = 3.91488e-07, global = 6.66314e-17, cumulative = 3.23449e-14
smoothSolver:  Solving for nuTilda, Initial residual = 1.65206e-06, Final residual = 4.89825e-09, No Iterations 8
ExecutionTime = 421.16 s  ClockTime = 421 s

forces wings output:
    sum of forces:
        pressure : (12.8707 31.7641 -3.29087e-19)
        viscous  : (0.0547776 -0.0295476 1.98052e-20)
        porous   : (0 0 0)
    sum of moments:
        pressure : (-1.58821 0.643534 6.39553)
        viscous  : (0.00147738 0.00273888 -0.0070508)
        porous   : (0 0 0)

Time = 4996

smoothSolver:  Solving for Ux, Initial residual = 1.32938e-06, Final residual = 6.54014e-09, No Iterations 8
smoothSolver:  Solving for Uy, Initial residual = 5.39178e-06, Final residual = 3.08856e-08, No Iterations 8
GAMG:  Solving for p, Initial residual = 1.02453e-05, Final residual = 7.76049e-07, No Iterations 2
time step continuity errors : sum local = 3.97965e-07, global = -1.83014e-16, cumulative = 3.21619e-14
smoothSolver:  Solving for nuTilda, Initial residual = 1.62593e-06, Final residual = 4.83434e-09, No Iterations 8
ExecutionTime = 421.25 s  ClockTime = 421 s

Time = 4997

smoothSolver:  Solving for Ux, Initial residual = 1.32744e-06, Final residual = 6.53365e-09, No Iterations 8
smoothSolver:  Solving for Uy, Initial residual = 5.27308e-06, Final residual = 3.00534e-08, No Iterations 8
GAMG:  Solving for p, Initial residual = 1.01632e-05, Final residual = 7.41271e-07, No Iterations 2
time step continuity errors : sum local = 3.80192e-07, global = 6.0975e-17, cumulative = 3.22228e-14
smoothSolver:  Solving for nuTilda, Initial residual = 1.60913e-06, Final residual = 4.77055e-09, No Iterations 8
ExecutionTime = 421.32 s  ClockTime = 421 s

Time = 4998

smoothSolver:  Solving for Ux, Initial residual = 1.32047e-06, Final residual = 6.53182e-09, No Iterations 8
smoothSolver:  Solving for Uy, Initial residual = 5.2856e-06, Final residual = 3.02681e-08, No Iterations 8
GAMG:  Solving for p, Initial residual = 1.00445e-05, Final residual = 7.54787e-07, No Iterations 2
time step continuity errors : sum local = 3.86827e-07, global = -1.01227e-16, cumulative = 3.21216e-14
smoothSolver:  Solving for nuTilda, Initial residual = 1.58279e-06, Final residual = 4.70659e-09, No Iterations 8
ExecutionTime = 421.4 s  ClockTime = 421 s

Time = 4999

smoothSolver:  Solving for Ux, Initial residual = 1.31823e-06, Final residual = 6.52203e-09, No Iterations 8
smoothSolver:  Solving for Uy, Initial residual = 5.16835e-06, Final residual = 2.94335e-08, No Iterations 8
GAMG:  Solving for p, Initial residual = 9.96548e-06, Final residual = 7.39335e-07, No Iterations 2
time step continuity errors : sum local = 3.79486e-07, global = -1.57679e-16, cumulative = 3.19639e-14
smoothSolver:  Solving for nuTilda, Initial residual = 1.56573e-06, Final residual = 4.64262e-09, No Iterations 8
ExecutionTime = 421.47 s  ClockTime = 421 s

Time = 5000

smoothSolver:  Solving for Ux, Initial residual = 1.31194e-06, Final residual = 6.52094e-09, No Iterations 8
smoothSolver:  Solving for Uy, Initial residual = 5.18066e-06, Final residual = 2.96481e-08, No Iterations 8
GAMG:  Solving for p, Initial residual = 9.85809e-06, Final residual = 7.45501e-07, No Iterations 2
time step continuity errors : sum local = 3.81708e-07, global = 8.10058e-17, cumulative = 3.20449e-14
smoothSolver:  Solving for nuTilda, Initial residual = 1.53921e-06, Final residual = 4.57802e-09, No Iterations 8
ExecutionTime = 421.69 s  ClockTime = 422 s

forces wings output:
    sum of forces:
        pressure : (12.8697 31.7611 -3.29091e-19)
        viscous  : (0.0547799 -0.0295489 1.98067e-20)
        porous   : (0 0 0)
    sum of moments:
        pressure : (-1.58806 0.643485 6.39535)
        viscous  : (0.00147745 0.002739 -0.00705083)
        porous   : (0 0 0)

End

