/*---------------------------------------------------------------------------*\
| =========                 |                                                 |
| \\      /  F ield         | OpenFOAM: The Open Source CFD Toolbox           |
|  \\    /   O peration     | Version:  2.3.0                                 |
|   \\  /    A nd           | Web:      www.OpenFOAM.org                      |
|    \\/     M anipulation  |                                                 |
\*---------------------------------------------------------------------------*/
Build  : 2.3.0-f5222ca19ce6
Exec   : simpleFoam -case Runs/first_flatplate_300_20/case
Date   : Jan 11 2015
Time   : 13:40:26
Host   : "lordvon-XPS-8300"
PID    : 6404
Case   : Runs/first_flatplate_300_20/case
nProcs : 1
sigFpe : Enabling floating point exception trapping (FOAM_SIGFPE).
fileModificationChecking : Monitoring run-time modified files using timeStampMaster
allowSystemOperations : Disallowing user-supplied system call operations

// * * * * * * * * * * * * * * * * * * * * * * * * * * * * * * * * * * * * * //
Create time

Create mesh for time = 0

Reading field p

Reading field U

Reading/calculating face flux field phi

Selecting incompressible transport model Newtonian
Selecting RAS turbulence model SpalartAllmaras
SpalartAllmarasCoeffs
{
    sigmaNut        0.66666;
    kappa           0.41;
    Cb1             0.1355;
    Cb2             0.622;
    Cw2             0.3;
    Cw3             2;
    Cv1             7.1;
    Cv2             5;
}

    Employing Ashford correction
No finite volume options present


SIMPLE: convergence criteria
    field p	 tolerance 1e-12
    field U	 tolerance 1e-12
    field nuTilda	 tolerance 1e-12


Starting time loop

forces wings:
    Not including porosity effects

Time = 1

smoothSolver:  Solving for Ux, Initial residual = 1, Final residual = 0.00375632, No Iterations 6
smoothSolver:  Solving for Uy, Initial residual = 1, Final residual = 0.00762625, No Iterations 4
GAMG:  Solving for p, Initial residual = 1, Final residual = 0.00833506, No Iterations 12
time step continuity errors : sum local = 0.00113558, global = 2.13616e-16, cumulative = 2.13616e-16
smoothSolver:  Solving for nuTilda, Initial residual = 1, Final residual = 0.00399913, No Iterations 4
ExecutionTime = 0.38 s  ClockTime = 0 s

Time = 2

smoothSolver:  Solving for Ux, Initial residual = 0.629436, Final residual = 0.00335089, No Iterations 8
smoothSolver:  Solving for Uy, Initial residual = 0.671148, Final residual = 0.00372962, No Iterations 8
GAMG:  Solving for p, Initial residual = 0.802401, Final residual = 0.00625496, No Iterations 7
time step continuity errors : sum local = 0.00207777, global = -6.64856e-17, cumulative = 1.47131e-16
smoothSolver:  Solving for nuTilda, Initial residual = 0.183585, Final residual = 0.000690285, No Iterations 6
ExecutionTime = 0.47 s  ClockTime = 0 s

Time = 3

smoothSolver:  Solving for Ux, Initial residual = 0.23908, Final residual = 0.00125277, No Iterations 8
smoothSolver:  Solving for Uy, Initial residual = 0.239379, Final residual = 0.00131375, No Iterations 8
GAMG:  Solving for p, Initial residual = 0.635191, Final residual = 0.00613893, No Iterations 9
time step continuity errors : sum local = 0.0028331, global = 7.17388e-17, cumulative = 2.18869e-16
smoothSolver:  Solving for nuTilda, Initial residual = 0.092644, Final residual = 0.000814636, No Iterations 6
ExecutionTime = 0.57 s  ClockTime = 1 s

Time = 4

smoothSolver:  Solving for Ux, Initial residual = 0.082522, Final residual = 0.000382773, No Iterations 8
smoothSolver:  Solving for Uy, Initial residual = 0.0799047, Final residual = 0.000419286, No Iterations 8
GAMG:  Solving for p, Initial residual = 0.538087, Final residual = 0.00402993, No Iterations 8
time step continuity errors : sum local = 0.00174371, global = 1.79578e-17, cumulative = 2.36827e-16
smoothSolver:  Solving for nuTilda, Initial residual = 0.0697614, Final residual = 0.000195633, No Iterations 8
ExecutionTime = 0.67 s  ClockTime = 1 s

Time = 5

smoothSolver:  Solving for Ux, Initial residual = 0.232483, Final residual = 0.0012154, No Iterations 8
smoothSolver:  Solving for Uy, Initial residual = 0.23546, Final residual = 0.00126592, No Iterations 8
GAMG:  Solving for p, Initial residual = 0.505271, Final residual = 0.00450806, No Iterations 7
time step continuity errors : sum local = 0.00201548, global = 2.16596e-16, cumulative = 4.53423e-16
smoothSolver:  Solving for nuTilda, Initial residual = 0.0573405, Final residual = 0.000178879, No Iterations 8
ExecutionTime = 0.76 s  ClockTime = 1 s

forces wings output:
    sum of forces:
        pressure : (-837.492 -2300.99 3.00649e-18)
        viscous  : (0.48653 -0.118582 -8.70699e-20)
        porous   : (0 0 0)
    sum of moments:
        pressure : (115.05 -41.8746 -613.341)
        viscous  : (0.00592911 0.0243265 0.013833)
        porous   : (0 0 0)

Time = 6

smoothSolver:  Solving for Ux, Initial residual = 0.195267, Final residual = 0.000985834, No Iterations 8
smoothSolver:  Solving for Uy, Initial residual = 0.212059, Final residual = 0.00113283, No Iterations 8
GAMG:  Solving for p, Initial residual = 0.413667, Final residual = 0.00334422, No Iterations 9
time step continuity errors : sum local = 0.00148308, global = 6.78785e-17, cumulative = 5.21302e-16
smoothSolver:  Solving for nuTilda, Initial residual = 0.0479691, Final residual = 0.000156611, No Iterations 8
ExecutionTime = 0.87 s  ClockTime = 1 s

Time = 7

smoothSolver:  Solving for Ux, Initial residual = 0.155318, Final residual = 0.000740197, No Iterations 8
smoothSolver:  Solving for Uy, Initial residual = 0.182712, Final residual = 0.000951437, No Iterations 8
GAMG:  Solving for p, Initial residual = 0.315485, Final residual = 0.00230712, No Iterations 7
time step continuity errors : sum local = 0.000980984, global = 2.81692e-16, cumulative = 8.02994e-16
smoothSolver:  Solving for nuTilda, Initial residual = 0.0400638, Final residual = 0.000133991, No Iterations 8
ExecutionTime = 0.96 s  ClockTime = 1 s

Time = 8

smoothSolver:  Solving for Ux, Initial residual = 0.164677, Final residual = 0.000829936, No Iterations 8
smoothSolver:  Solving for Uy, Initial residual = 0.180216, Final residual = 0.000950281, No Iterations 8
GAMG:  Solving for p, Initial residual = 0.355805, Final residual = 0.00318941, No Iterations 7
time step continuity errors : sum local = 0.00143867, global = -3.81795e-17, cumulative = 7.64814e-16
smoothSolver:  Solving for nuTilda, Initial residual = 0.0336175, Final residual = 0.000114902, No Iterations 8
ExecutionTime = 1.06 s  ClockTime = 1 s

Time = 9

smoothSolver:  Solving for Ux, Initial residual = 0.0529787, Final residual = 0.000240559, No Iterations 8
smoothSolver:  Solving for Uy, Initial residual = 0.0447171, Final residual = 0.000231154, No Iterations 8
GAMG:  Solving for p, Initial residual = 0.270709, Final residual = 0.00206325, No Iterations 9
time step continuity errors : sum local = 0.000910116, global = -2.45428e-16, cumulative = 5.19386e-16
smoothSolver:  Solving for nuTilda, Initial residual = 0.0288226, Final residual = 0.00010093, No Iterations 8
ExecutionTime = 1.16 s  ClockTime = 1 s

Time = 10

smoothSolver:  Solving for Ux, Initial residual = 0.0712817, Final residual = 0.000344041, No Iterations 8
smoothSolver:  Solving for Uy, Initial residual = 0.0812825, Final residual = 0.000419368, No Iterations 8
GAMG:  Solving for p, Initial residual = 0.228509, Final residual = 0.00200797, No Iterations 5
time step continuity errors : sum local = 0.000852606, global = 1.43298e-16, cumulative = 6.62684e-16
smoothSolver:  Solving for nuTilda, Initial residual = 0.0251797, Final residual = 9.07397e-05, No Iterations 8
ExecutionTime = 1.24 s  ClockTime = 1 s

forces wings output:
    sum of forces:
        pressure : (-520.5 -1430.06 1.13683e-18)
        viscous  : (0.425392 -0.202365 -8.91518e-20)
        porous   : (0 0 0)
    sum of moments:
        pressure : (71.503 -26.025 -391.621)
        viscous  : (0.0101182 0.0212696 -0.0114335)
        porous   : (0 0 0)

Time = 11

smoothSolver:  Solving for Ux, Initial residual = 0.088974, Final residual = 0.000440311, No Iterations 8
smoothSolver:  Solving for Uy, Initial residual = 0.106826, Final residual = 0.000550109, No Iterations 8
GAMG:  Solving for p, Initial residual = 0.24203, Final residual = 0.00220555, No Iterations 7
time step continuity errors : sum local = 0.000959764, global = 4.99658e-17, cumulative = 7.1265e-16
smoothSolver:  Solving for nuTilda, Initial residual = 0.0222806, Final residual = 8.26553e-05, No Iterations 8
ExecutionTime = 1.35 s  ClockTime = 1 s

Time = 12

smoothSolver:  Solving for Ux, Initial residual = 0.0296923, Final residual = 0.000110272, No Iterations 8
smoothSolver:  Solving for Uy, Initial residual = 0.0233342, Final residual = 0.000103381, No Iterations 8
GAMG:  Solving for p, Initial residual = 0.17537, Final residual = 0.00125261, No Iterations 9
time step continuity errors : sum local = 0.000515665, global = 3.79894e-17, cumulative = 7.50639e-16
smoothSolver:  Solving for nuTilda, Initial residual = 0.0198501, Final residual = 7.54204e-05, No Iterations 8
ExecutionTime = 1.45 s  ClockTime = 1 s

Time = 13

smoothSolver:  Solving for Ux, Initial residual = 0.0607564, Final residual = 0.00028356, No Iterations 8
smoothSolver:  Solving for Uy, Initial residual = 0.0695469, Final residual = 0.000351216, No Iterations 8
GAMG:  Solving for p, Initial residual = 0.161239, Final residual = 0.00121009, No Iterations 6
time step continuity errors : sum local = 0.000492883, global = -3.00174e-16, cumulative = 4.50465e-16
smoothSolver:  Solving for nuTilda, Initial residual = 0.0176874, Final residual = 6.86441e-05, No Iterations 8
ExecutionTime = 1.53 s  ClockTime = 2 s

Time = 14

smoothSolver:  Solving for Ux, Initial residual = 0.0474352, Final residual = 0.000222081, No Iterations 8
smoothSolver:  Solving for Uy, Initial residual = 0.0486013, Final residual = 0.000245958, No Iterations 8
GAMG:  Solving for p, Initial residual = 0.169453, Final residual = 0.00156703, No Iterations 6
time step continuity errors : sum local = 0.000655508, global = -2.79391e-17, cumulative = 4.22526e-16
smoothSolver:  Solving for nuTilda, Initial residual = 0.0158144, Final residual = 6.28269e-05, No Iterations 8
ExecutionTime = 1.62 s  ClockTime = 2 s

Time = 15

smoothSolver:  Solving for Ux, Initial residual = 0.0210478, Final residual = 8.43082e-05, No Iterations 8
smoothSolver:  Solving for Uy, Initial residual = 0.0145929, Final residual = 6.56479e-05, No Iterations 8
GAMG:  Solving for p, Initial residual = 0.119655, Final residual = 0.0011306, No Iterations 7
time step continuity errors : sum local = 0.000460907, global = -1.08813e-16, cumulative = 3.13713e-16
smoothSolver:  Solving for nuTilda, Initial residual = 0.0142733, Final residual = 5.81609e-05, No Iterations 8
ExecutionTime = 1.73 s  ClockTime = 2 s

forces wings output:
    sum of forces:
        pressure : (-188.554 -518.047 -5.97909e-19)
        viscous  : (0.414873 -0.189683 -3.12472e-20)
        porous   : (0 0 0)
    sum of moments:
        pressure : (25.9023 -9.42768 -149.944)
        viscous  : (0.00948416 0.0207436 -0.00951899)
        porous   : (0 0 0)

Time = 16

smoothSolver:  Solving for Ux, Initial residual = 0.0334624, Final residual = 0.000156826, No Iterations 8
smoothSolver:  Solving for Uy, Initial residual = 0.040304, Final residual = 0.000200566, No Iterations 8
GAMG:  Solving for p, Initial residual = 0.11929, Final residual = 0.000775485, No Iterations 6
time step continuity errors : sum local = 0.00031464, global = 1.4729e-16, cumulative = 4.61002e-16
smoothSolver:  Solving for nuTilda, Initial residual = 0.0130031, Final residual = 5.44174e-05, No Iterations 8
ExecutionTime = 1.82 s  ClockTime = 2 s

Time = 17

smoothSolver:  Solving for Ux, Initial residual = 0.0235028, Final residual = 0.000105764, No Iterations 8
smoothSolver:  Solving for Uy, Initial residual = 0.0281923, Final residual = 0.000138467, No Iterations 8
GAMG:  Solving for p, Initial residual = 0.116129, Final residual = 0.000953469, No Iterations 6
time step continuity errors : sum local = 0.000389343, global = -2.64093e-17, cumulative = 4.34593e-16
smoothSolver:  Solving for nuTilda, Initial residual = 0.011937, Final residual = 5.12323e-05, No Iterations 8
ExecutionTime = 1.91 s  ClockTime = 2 s

Time = 18

smoothSolver:  Solving for Ux, Initial residual = 0.0163478, Final residual = 6.2867e-05, No Iterations 8
smoothSolver:  Solving for Uy, Initial residual = 0.0165226, Final residual = 7.688e-05, No Iterations 8
GAMG:  Solving for p, Initial residual = 0.0814101, Final residual = 0.00077554, No Iterations 6
time step continuity errors : sum local = 0.000308569, global = 5.41095e-17, cumulative = 4.88703e-16
smoothSolver:  Solving for nuTilda, Initial residual = 0.0110147, Final residual = 4.82648e-05, No Iterations 8
ExecutionTime = 2 s  ClockTime = 2 s

Time = 19

smoothSolver:  Solving for Ux, Initial residual = 0.0232611, Final residual = 0.000101613, No Iterations 8
smoothSolver:  Solving for Uy, Initial residual = 0.0246183, Final residual = 0.000119774, No Iterations 8
GAMG:  Solving for p, Initial residual = 0.0865687, Final residual = 0.000631677, No Iterations 6
time step continuity errors : sum local = 0.000252081, global = -4.68974e-17, cumulative = 4.41805e-16
smoothSolver:  Solving for nuTilda, Initial residual = 0.0101661, Final residual = 4.53665e-05, No Iterations 8
ExecutionTime = 2.09 s  ClockTime = 2 s

Time = 20

smoothSolver:  Solving for Ux, Initial residual = 0.014493, Final residual = 5.9761e-05, No Iterations 8
smoothSolver:  Solving for Uy, Initial residual = 0.0113968, Final residual = 5.45609e-05, No Iterations 8
GAMG:  Solving for p, Initial residual = 0.0794122, Final residual = 0.000545498, No Iterations 7
time step continuity errors : sum local = 0.00021918, global = 2.90614e-17, cumulative = 4.70867e-16
smoothSolver:  Solving for nuTilda, Initial residual = 0.00942374, Final residual = 4.2733e-05, No Iterations 8
ExecutionTime = 2.19 s  ClockTime = 2 s

forces wings output:
    sum of forces:
        pressure : (-32.618 -89.6171 -1.13101e-18)
        viscous  : (0.408455 -0.164896 4.37567e-21)
        porous   : (0 0 0)
    sum of moments:
        pressure : (4.48086 -1.6309 -32.32)
        viscous  : (0.00824481 0.0204227 -0.00411622)
        porous   : (0 0 0)

Time = 21

smoothSolver:  Solving for Ux, Initial residual = 0.0130568, Final residual = 5.45606e-05, No Iterations 8
smoothSolver:  Solving for Uy, Initial residual = 0.0112175, Final residual = 5.24275e-05, No Iterations 8
GAMG:  Solving for p, Initial residual = 0.0556917, Final residual = 0.000533776, No Iterations 5
time step continuity errors : sum local = 0.000213004, global = 4.51741e-17, cumulative = 5.16041e-16
smoothSolver:  Solving for nuTilda, Initial residual = 0.00879114, Final residual = 4.04543e-05, No Iterations 8
ExecutionTime = 2.28 s  ClockTime = 2 s

Time = 22

smoothSolver:  Solving for Ux, Initial residual = 0.0128217, Final residual = 5.71111e-05, No Iterations 8
smoothSolver:  Solving for Uy, Initial residual = 0.0151686, Final residual = 7.28153e-05, No Iterations 8
GAMG:  Solving for p, Initial residual = 0.0599585, Final residual = 0.000336101, No Iterations 6
time step continuity errors : sum local = 0.000134518, global = 2.55793e-16, cumulative = 7.71833e-16
smoothSolver:  Solving for nuTilda, Initial residual = 0.00824743, Final residual = 3.84479e-05, No Iterations 8
ExecutionTime = 2.37 s  ClockTime = 2 s

Time = 23

smoothSolver:  Solving for Ux, Initial residual = 0.0065934, Final residual = 2.58276e-05, No Iterations 8
smoothSolver:  Solving for Uy, Initial residual = 0.00686261, Final residual = 3.14899e-05, No Iterations 8
GAMG:  Solving for p, Initial residual = 0.054352, Final residual = 0.000346563, No Iterations 6
time step continuity errors : sum local = 0.000138551, global = -9.45534e-17, cumulative = 6.7728e-16
smoothSolver:  Solving for nuTilda, Initial residual = 0.00777796, Final residual = 3.66008e-05, No Iterations 8
ExecutionTime = 2.46 s  ClockTime = 2 s

Time = 24

smoothSolver:  Solving for Ux, Initial residual = 0.00911683, Final residual = 3.71688e-05, No Iterations 8
smoothSolver:  Solving for Uy, Initial residual = 0.00901556, Final residual = 4.23558e-05, No Iterations 8
GAMG:  Solving for p, Initial residual = 0.0397138, Final residual = 0.000297559, No Iterations 6
time step continuity errors : sum local = 0.000118631, global = 1.49267e-16, cumulative = 8.26547e-16
smoothSolver:  Solving for nuTilda, Initial residual = 0.00735877, Final residual = 3.48244e-05, No Iterations 8
ExecutionTime = 2.55 s  ClockTime = 3 s

Time = 25

smoothSolver:  Solving for Ux, Initial residual = 0.00949751, Final residual = 3.9732e-05, No Iterations 8
smoothSolver:  Solving for Uy, Initial residual = 0.0084149, Final residual = 3.94258e-05, No Iterations 8
GAMG:  Solving for p, Initial residual = 0.0406208, Final residual = 0.000280996, No Iterations 6
time step continuity errors : sum local = 0.000112828, global = 3.58575e-16, cumulative = 1.18512e-15
smoothSolver:  Solving for nuTilda, Initial residual = 0.00696888, Final residual = 3.31355e-05, No Iterations 8
ExecutionTime = 2.64 s  ClockTime = 3 s

forces wings output:
    sum of forces:
        pressure : (13.8071 37.9347 -9.94392e-19)
        viscous  : (0.398017 -0.148833 1.4031e-20)
        porous   : (0 0 0)
    sum of moments:
        pressure : (-1.89673 0.690355 4.40831)
        viscous  : (0.00744163 0.0199009 -0.00112586)
        porous   : (0 0 0)

Time = 26

smoothSolver:  Solving for Ux, Initial residual = 0.00669862, Final residual = 2.65605e-05, No Iterations 8
smoothSolver:  Solving for Uy, Initial residual = 0.00366569, Final residual = 1.66063e-05, No Iterations 8
GAMG:  Solving for p, Initial residual = 0.036408, Final residual = 0.000303414, No Iterations 6
time step continuity errors : sum local = 0.000121427, global = 2.84109e-16, cumulative = 1.46923e-15
smoothSolver:  Solving for nuTilda, Initial residual = 0.00661045, Final residual = 3.15643e-05, No Iterations 8
ExecutionTime = 2.73 s  ClockTime = 3 s

Time = 27

smoothSolver:  Solving for Ux, Initial residual = 0.00707646, Final residual = 2.95869e-05, No Iterations 8
smoothSolver:  Solving for Uy, Initial residual = 0.00582287, Final residual = 2.76351e-05, No Iterations 8
GAMG:  Solving for p, Initial residual = 0.0279078, Final residual = 0.00012477, No Iterations 6
time step continuity errors : sum local = 4.97323e-05, global = 2.6022e-16, cumulative = 1.72945e-15
smoothSolver:  Solving for nuTilda, Initial residual = 0.00629141, Final residual = 3.01481e-05, No Iterations 8
ExecutionTime = 2.82 s  ClockTime = 3 s

Time = 28

smoothSolver:  Solving for Ux, Initial residual = 0.00566964, Final residual = 2.3678e-05, No Iterations 8
smoothSolver:  Solving for Uy, Initial residual = 0.00559191, Final residual = 2.64914e-05, No Iterations 8
GAMG:  Solving for p, Initial residual = 0.0271342, Final residual = 0.000166684, No Iterations 6
time step continuity errors : sum local = 6.72033e-05, global = -8.53639e-17, cumulative = 1.64409e-15
smoothSolver:  Solving for nuTilda, Initial residual = 0.00600598, Final residual = 2.88435e-05, No Iterations 8
ExecutionTime = 2.91 s  ClockTime = 3 s

Time = 29

smoothSolver:  Solving for Ux, Initial residual = 0.00473153, Final residual = 1.879e-05, No Iterations 8
smoothSolver:  Solving for Uy, Initial residual = 0.00381058, Final residual = 1.76069e-05, No Iterations 8
GAMG:  Solving for p, Initial residual = 0.0249509, Final residual = 0.000202767, No Iterations 5
time step continuity errors : sum local = 8.12604e-05, global = 5.77666e-17, cumulative = 1.70185e-15
smoothSolver:  Solving for nuTilda, Initial residual = 0.00574849, Final residual = 2.76084e-05, No Iterations 8
ExecutionTime = 3 s  ClockTime = 3 s

Time = 30

smoothSolver:  Solving for Ux, Initial residual = 0.0056739, Final residual = 2.30838e-05, No Iterations 8
smoothSolver:  Solving for Uy, Initial residual = 0.00434073, Final residual = 2.04853e-05, No Iterations 8
GAMG:  Solving for p, Initial residual = 0.020762, Final residual = 0.000144998, No Iterations 6
time step continuity errors : sum local = 5.79264e-05, global = 1.96145e-16, cumulative = 1.898e-15
smoothSolver:  Solving for nuTilda, Initial residual = 0.00550646, Final residual = 2.63891e-05, No Iterations 8
ExecutionTime = 3.09 s  ClockTime = 3 s

forces wings output:
    sum of forces:
        pressure : (17.639 48.4626 -1.01316e-18)
        viscous  : (0.384944 -0.139947 1.5003e-20)
        porous   : (0 0 0)
    sum of moments:
        pressure : (-2.42313 0.881948 7.6047)
        viscous  : (0.00699735 0.0192472 -0.000115147)
        porous   : (0 0 0)

Time = 31

smoothSolver:  Solving for Ux, Initial residual = 0.00529998, Final residual = 2.14195e-05, No Iterations 8
smoothSolver:  Solving for Uy, Initial residual = 0.00319141, Final residual = 1.51179e-05, No Iterations 8
GAMG:  Solving for p, Initial residual = 0.0180606, Final residual = 0.000121146, No Iterations 6
time step continuity errors : sum local = 4.89119e-05, global = -2.07593e-17, cumulative = 1.87724e-15
smoothSolver:  Solving for nuTilda, Initial residual = 0.00527681, Final residual = 2.52493e-05, No Iterations 8
ExecutionTime = 3.18 s  ClockTime = 3 s

Time = 32

smoothSolver:  Solving for Ux, Initial residual = 0.00491589, Final residual = 2.00828e-05, No Iterations 8
smoothSolver:  Solving for Uy, Initial residual = 0.00263534, Final residual = 1.23756e-05, No Iterations 8
GAMG:  Solving for p, Initial residual = 0.0164205, Final residual = 0.00011708, No Iterations 6
time step continuity errors : sum local = 4.71933e-05, global = 1.7026e-16, cumulative = 2.0475e-15
smoothSolver:  Solving for nuTilda, Initial residual = 0.00505994, Final residual = 2.41813e-05, No Iterations 8
ExecutionTime = 3.27 s  ClockTime = 3 s

Time = 33

smoothSolver:  Solving for Ux, Initial residual = 0.00461925, Final residual = 1.91809e-05, No Iterations 8
smoothSolver:  Solving for Uy, Initial residual = 0.00311781, Final residual = 1.51287e-05, No Iterations 8
GAMG:  Solving for p, Initial residual = 0.0145307, Final residual = 7.63841e-05, No Iterations 6
time step continuity errors : sum local = 3.03559e-05, global = -7.72298e-17, cumulative = 1.97027e-15
smoothSolver:  Solving for nuTilda, Initial residual = 0.00485896, Final residual = 2.32072e-05, No Iterations 8
ExecutionTime = 3.36 s  ClockTime = 3 s

Time = 34

smoothSolver:  Solving for Ux, Initial residual = 0.00408062, Final residual = 1.69362e-05, No Iterations 8
smoothSolver:  Solving for Uy, Initial residual = 0.00264153, Final residual = 1.2995e-05, No Iterations 8
GAMG:  Solving for p, Initial residual = 0.0123082, Final residual = 9.1177e-05, No Iterations 5
time step continuity errors : sum local = 3.6656e-05, global = 1.41837e-16, cumulative = 2.11211e-15
smoothSolver:  Solving for nuTilda, Initial residual = 0.00466926, Final residual = 2.22912e-05, No Iterations 8
ExecutionTime = 3.45 s  ClockTime = 3 s

Time = 35

smoothSolver:  Solving for Ux, Initial residual = 0.00403256, Final residual = 1.66855e-05, No Iterations 8
smoothSolver:  Solving for Uy, Initial residual = 0.00253937, Final residual = 1.2399e-05, No Iterations 8
GAMG:  Solving for p, Initial residual = 0.0113413, Final residual = 7.8372e-05, No Iterations 5
time step continuity errors : sum local = 3.1579e-05, global = 2.21861e-16, cumulative = 2.33397e-15
smoothSolver:  Solving for nuTilda, Initial residual = 0.00449382, Final residual = 2.14379e-05, No Iterations 8
ExecutionTime = 3.54 s  ClockTime = 4 s

forces wings output:
    sum of forces:
        pressure : (13.2865 36.5044 -1.04269e-18)
        viscous  : (0.370772 -0.134129 1.40622e-20)
        porous   : (0 0 0)
    sum of moments:
        pressure : (-1.82522 0.664325 3.82421)
        viscous  : (0.00670645 0.0185386 4.24994e-05)
        porous   : (0 0 0)

Time = 36

smoothSolver:  Solving for Ux, Initial residual = 0.00413807, Final residual = 1.7218e-05, No Iterations 8
smoothSolver:  Solving for Uy, Initial residual = 0.00233377, Final residual = 1.16201e-05, No Iterations 8
GAMG:  Solving for p, Initial residual = 0.0106544, Final residual = 4.9169e-05, No Iterations 6
time step continuity errors : sum local = 1.96971e-05, global = 6.02094e-17, cumulative = 2.39418e-15
smoothSolver:  Solving for nuTilda, Initial residual = 0.00432843, Final residual = 2.06355e-05, No Iterations 8
ExecutionTime = 3.63 s  ClockTime = 4 s

Time = 37

smoothSolver:  Solving for Ux, Initial residual = 0.00407731, Final residual = 1.71079e-05, No Iterations 8
smoothSolver:  Solving for Uy, Initial residual = 0.00184853, Final residual = 9.43056e-06, No Iterations 8
GAMG:  Solving for p, Initial residual = 0.0090341, Final residual = 7.01792e-05, No Iterations 5
time step continuity errors : sum local = 2.8348e-05, global = -2.83784e-17, cumulative = 2.3658e-15
smoothSolver:  Solving for nuTilda, Initial residual = 0.00417549, Final residual = 1.98653e-05, No Iterations 8
ExecutionTime = 3.73 s  ClockTime = 4 s

Time = 38

smoothSolver:  Solving for Ux, Initial residual = 0.0039423, Final residual = 1.66648e-05, No Iterations 8
smoothSolver:  Solving for Uy, Initial residual = 0.00195249, Final residual = 9.91321e-06, No Iterations 8
GAMG:  Solving for p, Initial residual = 0.00835193, Final residual = 5.50703e-05, No Iterations 5
time step continuity errors : sum local = 2.22715e-05, global = -7.55765e-17, cumulative = 2.29022e-15
smoothSolver:  Solving for nuTilda, Initial residual = 0.00403278, Final residual = 1.91505e-05, No Iterations 8
ExecutionTime = 3.82 s  ClockTime = 4 s

Time = 39

smoothSolver:  Solving for Ux, Initial residual = 0.00374073, Final residual = 1.59152e-05, No Iterations 8
smoothSolver:  Solving for Uy, Initial residual = 0.00198857, Final residual = 1.02898e-05, No Iterations 8
GAMG:  Solving for p, Initial residual = 0.00798848, Final residual = 5.97301e-05, No Iterations 5
time step continuity errors : sum local = 2.385e-05, global = 1.00507e-16, cumulative = 2.39073e-15
smoothSolver:  Solving for nuTilda, Initial residual = 0.00389728, Final residual = 1.84667e-05, No Iterations 8
ExecutionTime = 3.9 s  ClockTime = 4 s

Time = 40

smoothSolver:  Solving for Ux, Initial residual = 0.00358382, Final residual = 1.53325e-05, No Iterations 8
smoothSolver:  Solving for Uy, Initial residual = 0.00187977, Final residual = 9.81478e-06, No Iterations 8
GAMG:  Solving for p, Initial residual = 0.00699864, Final residual = 6.18613e-05, No Iterations 4
time step continuity errors : sum local = 2.49862e-05, global = -5.82018e-18, cumulative = 2.38491e-15
smoothSolver:  Solving for nuTilda, Initial residual = 0.00377056, Final residual = 1.78394e-05, No Iterations 8
ExecutionTime = 3.99 s  ClockTime = 4 s

forces wings output:
    sum of forces:
        pressure : (10.6025 29.13 -1.09162e-18)
        viscous  : (0.356205 -0.129051 1.38767e-20)
        porous   : (0 0 0)
    sum of moments:
        pressure : (-1.4565 0.530123 1.30085)
        viscous  : (0.00645254 0.0178102 -4.45944e-07)
        porous   : (0 0 0)

Time = 41

smoothSolver:  Solving for Ux, Initial residual = 0.00354046, Final residual = 1.51928e-05, No Iterations 8
smoothSolver:  Solving for Uy, Initial residual = 0.00184285, Final residual = 9.63886e-06, No Iterations 8
GAMG:  Solving for p, Initial residual = 0.00657577, Final residual = 6.11252e-05, No Iterations 5
time step continuity errors : sum local = 2.48035e-05, global = 1.62057e-16, cumulative = 2.54697e-15
smoothSolver:  Solving for nuTilda, Initial residual = 0.0036493, Final residual = 1.72221e-05, No Iterations 8
ExecutionTime = 4.08 s  ClockTime = 4 s

Time = 42

smoothSolver:  Solving for Ux, Initial residual = 0.00353682, Final residual = 1.52486e-05, No Iterations 8
smoothSolver:  Solving for Uy, Initial residual = 0.00167111, Final residual = 8.9134e-06, No Iterations 8
GAMG:  Solving for p, Initial residual = 0.00633935, Final residual = 4.17809e-05, No Iterations 5
time step continuity errors : sum local = 1.68033e-05, global = 2.02976e-16, cumulative = 2.74994e-15
smoothSolver:  Solving for nuTilda, Initial residual = 0.00353327, Final residual = 1.66519e-05, No Iterations 8
ExecutionTime = 4.17 s  ClockTime = 4 s

Time = 43

smoothSolver:  Solving for Ux, Initial residual = 0.00350466, Final residual = 1.51906e-05, No Iterations 8
smoothSolver:  Solving for Uy, Initial residual = 0.00159794, Final residual = 8.61113e-06, No Iterations 8
GAMG:  Solving for p, Initial residual = 0.0058319, Final residual = 3.5219e-05, No Iterations 5
time step continuity errors : sum local = 1.4234e-05, global = 1.55434e-16, cumulative = 2.90538e-15
smoothSolver:  Solving for nuTilda, Initial residual = 0.00342025, Final residual = 1.60921e-05, No Iterations 8
ExecutionTime = 4.25 s  ClockTime = 4 s

Time = 44

smoothSolver:  Solving for Ux, Initial residual = 0.00342042, Final residual = 1.48864e-05, No Iterations 8
smoothSolver:  Solving for Uy, Initial residual = 0.00161831, Final residual = 8.77223e-06, No Iterations 8
GAMG:  Solving for p, Initial residual = 0.0056577, Final residual = 5.28819e-05, No Iterations 4
time step continuity errors : sum local = 2.12546e-05, global = 1.11209e-16, cumulative = 3.01658e-15
smoothSolver:  Solving for nuTilda, Initial residual = 0.00331215, Final residual = 1.55732e-05, No Iterations 8
ExecutionTime = 4.34 s  ClockTime = 4 s

Time = 45

smoothSolver:  Solving for Ux, Initial residual = 0.00331132, Final residual = 1.44771e-05, No Iterations 8
smoothSolver:  Solving for Uy, Initial residual = 0.00160455, Final residual = 8.79412e-06, No Iterations 8
GAMG:  Solving for p, Initial residual = 0.00547664, Final residual = 4.88506e-05, No Iterations 4
time step continuity errors : sum local = 1.95719e-05, global = -7.0565e-18, cumulative = 3.00953e-15
smoothSolver:  Solving for nuTilda, Initial residual = 0.00320346, Final residual = 1.50611e-05, No Iterations 8
ExecutionTime = 4.42 s  ClockTime = 4 s

forces wings output:
    sum of forces:
        pressure : (10.2147 28.0647 -1.15719e-18)
        viscous  : (0.342308 -0.124223 1.50667e-20)
        porous   : (0 0 0)
    sum of moments:
        pressure : (-1.40324 0.510737 0.771733)
        viscous  : (0.00621115 0.0171154 -4.66714e-05)
        porous   : (0 0 0)

Time = 46

smoothSolver:  Solving for Ux, Initial residual = 0.00322198, Final residual = 1.41549e-05, No Iterations 8
smoothSolver:  Solving for Uy, Initial residual = 0.00160969, Final residual = 8.82659e-06, No Iterations 8
GAMG:  Solving for p, Initial residual = 0.00517488, Final residual = 3.26991e-05, No Iterations 4
time step continuity errors : sum local = 1.31429e-05, global = -9.47851e-17, cumulative = 2.91474e-15
smoothSolver:  Solving for nuTilda, Initial residual = 0.00310336, Final residual = 1.4584e-05, No Iterations 8
ExecutionTime = 4.51 s  ClockTime = 4 s

Time = 47

smoothSolver:  Solving for Ux, Initial residual = 0.00316974, Final residual = 1.39923e-05, No Iterations 8
smoothSolver:  Solving for Uy, Initial residual = 0.00157307, Final residual = 8.66705e-06, No Iterations 8
GAMG:  Solving for p, Initial residual = 0.00500091, Final residual = 4.04322e-05, No Iterations 4
time step continuity errors : sum local = 1.62162e-05, global = 6.5167e-17, cumulative = 2.97991e-15
smoothSolver:  Solving for nuTilda, Initial residual = 0.00300734, Final residual = 1.41231e-05, No Iterations 8
ExecutionTime = 4.59 s  ClockTime = 5 s

Time = 48

smoothSolver:  Solving for Ux, Initial residual = 0.00314005, Final residual = 1.39162e-05, No Iterations 8
smoothSolver:  Solving for Uy, Initial residual = 0.00152375, Final residual = 8.4466e-06, No Iterations 8
GAMG:  Solving for p, Initial residual = 0.00478717, Final residual = 3.84576e-05, No Iterations 4
time step continuity errors : sum local = 1.54523e-05, global = -1.79295e-16, cumulative = 2.80061e-15
smoothSolver:  Solving for nuTilda, Initial residual = 0.0029157, Final residual = 1.36935e-05, No Iterations 8
ExecutionTime = 4.68 s  ClockTime = 5 s

Time = 49

smoothSolver:  Solving for Ux, Initial residual = 0.00310351, Final residual = 1.38032e-05, No Iterations 8
smoothSolver:  Solving for Uy, Initial residual = 0.00150188, Final residual = 8.36048e-06, No Iterations 8
GAMG:  Solving for p, Initial residual = 0.0045932, Final residual = 3.00553e-05, No Iterations 4
time step continuity errors : sum local = 1.2077e-05, global = 4.12527e-16, cumulative = 3.21314e-15
smoothSolver:  Solving for nuTilda, Initial residual = 0.00282826, Final residual = 1.32714e-05, No Iterations 8
ExecutionTime = 4.76 s  ClockTime = 5 s

Time = 50

smoothSolver:  Solving for Ux, Initial residual = 0.00304696, Final residual = 1.35953e-05, No Iterations 8
smoothSolver:  Solving for Uy, Initial residual = 0.00149664, Final residual = 8.38212e-06, No Iterations 8
GAMG:  Solving for p, Initial residual = 0.00449947, Final residual = 2.51184e-05, No Iterations 4
time step continuity errors : sum local = 1.00612e-05, global = 2.88117e-17, cumulative = 3.24195e-15
smoothSolver:  Solving for nuTilda, Initial residual = 0.00274536, Final residual = 1.287e-05, No Iterations 8
ExecutionTime = 4.84 s  ClockTime = 5 s

forces wings output:
    sum of forces:
        pressure : (10.6828 29.3508 -1.202e-18)
        viscous  : (0.328389 -0.119271 1.6146e-20)
        porous   : (0 0 0)
    sum of moments:
        pressure : (-1.46754 0.534141 1.02631)
        viscous  : (0.00596356 0.0164195 -6.27681e-05)
        porous   : (0 0 0)

Time = 51

smoothSolver:  Solving for Ux, Initial residual = 0.00298507, Final residual = 1.33602e-05, No Iterations 8
smoothSolver:  Solving for Uy, Initial residual = 0.00149564, Final residual = 8.42617e-06, No Iterations 8
GAMG:  Solving for p, Initial residual = 0.00434589, Final residual = 1.94769e-05, No Iterations 4
time step continuity errors : sum local = 7.81776e-06, global = 1.11234e-16, cumulative = 3.35319e-15
smoothSolver:  Solving for nuTilda, Initial residual = 0.00266638, Final residual = 1.249e-05, No Iterations 8
ExecutionTime = 4.93 s  ClockTime = 5 s

Time = 52

smoothSolver:  Solving for Ux, Initial residual = 0.00292846, Final residual = 1.31443e-05, No Iterations 8
smoothSolver:  Solving for Uy, Initial residual = 0.00148804, Final residual = 8.4177e-06, No Iterations 8
GAMG:  Solving for p, Initial residual = 0.00418412, Final residual = 2.23851e-05, No Iterations 4
time step continuity errors : sum local = 9.01328e-06, global = -6.15056e-17, cumulative = 3.29168e-15
smoothSolver:  Solving for nuTilda, Initial residual = 0.00259218, Final residual = 1.21303e-05, No Iterations 8
ExecutionTime = 5.02 s  ClockTime = 5 s

Time = 53

smoothSolver:  Solving for Ux, Initial residual = 0.00288337, Final residual = 1.29744e-05, No Iterations 8
smoothSolver:  Solving for Uy, Initial residual = 0.0014711, Final residual = 8.35523e-06, No Iterations 8
GAMG:  Solving for p, Initial residual = 0.00406959, Final residual = 2.65153e-05, No Iterations 4
time step continuity errors : sum local = 1.06987e-05, global = 1.35583e-16, cumulative = 3.42726e-15
smoothSolver:  Solving for nuTilda, Initial residual = 0.00251997, Final residual = 1.1779e-05, No Iterations 8
ExecutionTime = 5.11 s  ClockTime = 5 s

Time = 54

smoothSolver:  Solving for Ux, Initial residual = 0.00284858, Final residual = 1.28451e-05, No Iterations 8
smoothSolver:  Solving for Uy, Initial residual = 0.00145195, Final residual = 8.27779e-06, No Iterations 8
GAMG:  Solving for p, Initial residual = 0.00392387, Final residual = 2.84948e-05, No Iterations 4
time step continuity errors : sum local = 1.14279e-05, global = 1.41734e-16, cumulative = 3.569e-15
smoothSolver:  Solving for nuTilda, Initial residual = 0.00245121, Final residual = 1.14464e-05, No Iterations 8
ExecutionTime = 5.19 s  ClockTime = 5 s

Time = 55

smoothSolver:  Solving for Ux, Initial residual = 0.00281553, Final residual = 1.272e-05, No Iterations 8
smoothSolver:  Solving for Uy, Initial residual = 0.00143787, Final residual = 8.23145e-06, No Iterations 8
GAMG:  Solving for p, Initial residual = 0.00383907, Final residual = 2.55922e-05, No Iterations 4
time step continuity errors : sum local = 1.02883e-05, global = 3.54767e-16, cumulative = 3.92377e-15
smoothSolver:  Solving for nuTilda, Initial residual = 0.00238559, Final residual = 1.11264e-05, No Iterations 8
ExecutionTime = 5.28 s  ClockTime = 5 s

forces wings output:
    sum of forces:
        pressure : (11.0647 30.3999 -1.23532e-18)
        viscous  : (0.315162 -0.114505 1.6947e-20)
        porous   : (0 0 0)
    sum of moments:
        pressure : (-1.52 0.553233 1.22046)
        viscous  : (0.00572525 0.0157581 -6.24298e-05)
        porous   : (0 0 0)

Time = 56

smoothSolver:  Solving for Ux, Initial residual = 0.00277752, Final residual = 1.25724e-05, No Iterations 8
smoothSolver:  Solving for Uy, Initial residual = 0.00142986, Final residual = 8.22217e-06, No Iterations 8
GAMG:  Solving for p, Initial residual = 0.00379094, Final residual = 2.21811e-05, No Iterations 4
time step continuity errors : sum local = 8.92242e-06, global = 1.07898e-16, cumulative = 4.03166e-15
smoothSolver:  Solving for nuTilda, Initial residual = 0.00232301, Final residual = 1.08139e-05, No Iterations 8
ExecutionTime = 5.37 s  ClockTime = 5 s

Time = 57

smoothSolver:  Solving for Ux, Initial residual = 0.00273628, Final residual = 1.24135e-05, No Iterations 8
smoothSolver:  Solving for Uy, Initial residual = 0.0014236, Final residual = 8.21979e-06, No Iterations 8
GAMG:  Solving for p, Initial residual = 0.00372824, Final residual = 1.49484e-05, No Iterations 4
time step continuity errors : sum local = 6.00368e-06, global = -9.08208e-17, cumulative = 3.94084e-15
smoothSolver:  Solving for nuTilda, Initial residual = 0.0022605, Final residual = 1.05032e-05, No Iterations 8
ExecutionTime = 5.45 s  ClockTime = 5 s

Time = 58

smoothSolver:  Solving for Ux, Initial residual = 0.00269804, Final residual = 1.22666e-05, No Iterations 8
smoothSolver:  Solving for Uy, Initial residual = 0.00141511, Final residual = 8.20419e-06, No Iterations 8
GAMG:  Solving for p, Initial residual = 0.00365349, Final residual = 1.85681e-05, No Iterations 4
time step continuity errors : sum local = 7.46791e-06, global = 3.43786e-16, cumulative = 4.28463e-15
smoothSolver:  Solving for nuTilda, Initial residual = 0.00220008, Final residual = 1.02095e-05, No Iterations 8
ExecutionTime = 5.53 s  ClockTime = 6 s

Time = 59

smoothSolver:  Solving for Ux, Initial residual = 0.0026605, Final residual = 1.21195e-05, No Iterations 8
smoothSolver:  Solving for Uy, Initial residual = 0.00140648, Final residual = 8.18467e-06, No Iterations 8
GAMG:  Solving for p, Initial residual = 0.00356397, Final residual = 2.11355e-05, No Iterations 4
time step continuity errors : sum local = 8.50516e-06, global = -1.20889e-17, cumulative = 4.27254e-15
smoothSolver:  Solving for nuTilda, Initial residual = 0.00214142, Final residual = 9.92949e-06, No Iterations 8
ExecutionTime = 5.62 s  ClockTime = 6 s

Time = 60

smoothSolver:  Solving for Ux, Initial residual = 0.00262565, Final residual = 1.19843e-05, No Iterations 8
smoothSolver:  Solving for Uy, Initial residual = 0.00139749, Final residual = 8.15917e-06, No Iterations 8
GAMG:  Solving for p, Initial residual = 0.00347564, Final residual = 2.16086e-05, No Iterations 4
time step continuity errors : sum local = 8.64703e-06, global = -6.94868e-17, cumulative = 4.20305e-15
smoothSolver:  Solving for nuTilda, Initial residual = 0.00208625, Final residual = 9.65839e-06, No Iterations 8
ExecutionTime = 5.7 s  ClockTime = 6 s

forces wings output:
    sum of forces:
        pressure : (11.2891 31.0166 -1.26381e-18)
        viscous  : (0.302219 -0.109829 1.74971e-20)
        porous   : (0 0 0)
    sum of moments:
        pressure : (-1.55083 0.564457 1.22311)
        viscous  : (0.00549147 0.015111 -5.56859e-05)
        porous   : (0 0 0)

Time = 61

smoothSolver:  Solving for Ux, Initial residual = 0.00259339, Final residual = 1.18604e-05, No Iterations 8
smoothSolver:  Solving for Uy, Initial residual = 0.00138872, Final residual = 8.13368e-06, No Iterations 8
GAMG:  Solving for p, Initial residual = 0.00341295, Final residual = 2.33638e-05, No Iterations 4
time step continuity errors : sum local = 9.38573e-06, global = -7.54524e-17, cumulative = 4.1276e-15
smoothSolver:  Solving for nuTilda, Initial residual = 0.00203312, Final residual = 9.39717e-06, No Iterations 8
ExecutionTime = 5.79 s  ClockTime = 6 s

Time = 62

smoothSolver:  Solving for Ux, Initial residual = 0.00256162, Final residual = 1.17357e-05, No Iterations 8
smoothSolver:  Solving for Uy, Initial residual = 0.001381, Final residual = 8.11403e-06, No Iterations 8
GAMG:  Solving for p, Initial residual = 0.00335137, Final residual = 2.21351e-05, No Iterations 4
time step continuity errors : sum local = 8.8953e-06, global = -3.60402e-17, cumulative = 4.09156e-15
smoothSolver:  Solving for nuTilda, Initial residual = 0.00198177, Final residual = 9.14856e-06, No Iterations 8
ExecutionTime = 5.87 s  ClockTime = 6 s

Time = 63

smoothSolver:  Solving for Ux, Initial residual = 0.00253021, Final residual = 1.16122e-05, No Iterations 8
smoothSolver:  Solving for Uy, Initial residual = 0.00137271, Final residual = 8.09413e-06, No Iterations 8
GAMG:  Solving for p, Initial residual = 0.00329821, Final residual = 1.59997e-05, No Iterations 4
time step continuity errors : sum local = 6.42641e-06, global = -1.73133e-16, cumulative = 3.91843e-15
smoothSolver:  Solving for nuTilda, Initial residual = 0.00193096, Final residual = 8.90953e-06, No Iterations 8
ExecutionTime = 5.96 s  ClockTime = 6 s

Time = 64

smoothSolver:  Solving for Ux, Initial residual = 0.00250054, Final residual = 1.14983e-05, No Iterations 8
smoothSolver:  Solving for Uy, Initial residual = 0.00136267, Final residual = 8.06549e-06, No Iterations 8
GAMG:  Solving for p, Initial residual = 0.00324054, Final residual = 1.70768e-05, No Iterations 4
time step continuity errors : sum local = 6.85614e-06, global = -9.76521e-17, cumulative = 3.82078e-15
smoothSolver:  Solving for nuTilda, Initial residual = 0.00188216, Final residual = 8.68116e-06, No Iterations 8
ExecutionTime = 6.04 s  ClockTime = 6 s

Time = 65

smoothSolver:  Solving for Ux, Initial residual = 0.00246885, Final residual = 1.13723e-05, No Iterations 8
smoothSolver:  Solving for Uy, Initial residual = 0.00135501, Final residual = 8.04562e-06, No Iterations 8
GAMG:  Solving for p, Initial residual = 0.00317431, Final residual = 1.84652e-05, No Iterations 4
time step continuity errors : sum local = 7.41446e-06, global = 4.5281e-17, cumulative = 3.86606e-15
smoothSolver:  Solving for nuTilda, Initial residual = 0.00183604, Final residual = 8.46305e-06, No Iterations 8
ExecutionTime = 6.13 s  ClockTime = 6 s

forces wings output:
    sum of forces:
        pressure : (11.5776 31.8092 -1.28663e-18)
        viscous  : (0.289729 -0.105305 1.81064e-20)
        porous   : (0 0 0)
    sum of moments:
        pressure : (-1.59046 0.578881 1.26811)
        viscous  : (0.00526527 0.0144865 -4.98693e-05)
        porous   : (0 0 0)

Time = 66

smoothSolver:  Solving for Ux, Initial residual = 0.00243781, Final residual = 1.12474e-05, No Iterations 8
smoothSolver:  Solving for Uy, Initial residual = 0.00134838, Final residual = 8.02768e-06, No Iterations 8
GAMG:  Solving for p, Initial residual = 0.00310655, Final residual = 2.10047e-05, No Iterations 4
time step continuity errors : sum local = 8.44278e-06, global = 6.2031e-17, cumulative = 3.92809e-15
smoothSolver:  Solving for nuTilda, Initial residual = 0.00179196, Final residual = 8.25452e-06, No Iterations 8
ExecutionTime = 6.21 s  ClockTime = 6 s

Time = 67

smoothSolver:  Solving for Ux, Initial residual = 0.00240835, Final residual = 1.11282e-05, No Iterations 8
smoothSolver:  Solving for Uy, Initial residual = 0.00134213, Final residual = 8.00945e-06, No Iterations 8
GAMG:  Solving for p, Initial residual = 0.00304859, Final residual = 2.10816e-05, No Iterations 4
time step continuity errors : sum local = 8.43602e-06, global = 1.37029e-16, cumulative = 4.06512e-15
smoothSolver:  Solving for nuTilda, Initial residual = 0.00174814, Final residual = 8.04955e-06, No Iterations 8
ExecutionTime = 6.3 s  ClockTime = 6 s

Time = 68

smoothSolver:  Solving for Ux, Initial residual = 0.00238115, Final residual = 1.10197e-05, No Iterations 8
smoothSolver:  Solving for Uy, Initial residual = 0.00133474, Final residual = 7.98541e-06, No Iterations 8
GAMG:  Solving for p, Initial residual = 0.00299731, Final residual = 2.1378e-05, No Iterations 4
time step continuity errors : sum local = 8.5784e-06, global = 4.99321e-17, cumulative = 4.11505e-15
smoothSolver:  Solving for nuTilda, Initial residual = 0.00170614, Final residual = 7.8515e-06, No Iterations 8
ExecutionTime = 6.38 s  ClockTime = 6 s

Time = 69

smoothSolver:  Solving for Ux, Initial residual = 0.00235494, Final residual = 1.09136e-05, No Iterations 8
smoothSolver:  Solving for Uy, Initial residual = 0.00132671, Final residual = 7.95883e-06, No Iterations 8
GAMG:  Solving for p, Initial residual = 0.00294887, Final residual = 2.04498e-05, No Iterations 4
time step continuity errors : sum local = 8.2051e-06, global = -1.95271e-16, cumulative = 3.91978e-15
smoothSolver:  Solving for nuTilda, Initial residual = 0.00166631, Final residual = 7.6604e-06, No Iterations 8
ExecutionTime = 6.46 s  ClockTime = 6 s

Time = 70

smoothSolver:  Solving for Ux, Initial residual = 0.00232906, Final residual = 1.08094e-05, No Iterations 8
smoothSolver:  Solving for Uy, Initial residual = 0.0013182, Final residual = 7.92989e-06, No Iterations 8
GAMG:  Solving for p, Initial residual = 0.00289454, Final residual = 1.99234e-05, No Iterations 4
time step continuity errors : sum local = 7.99925e-06, global = -2.17804e-16, cumulative = 3.70197e-15
smoothSolver:  Solving for nuTilda, Initial residual = 0.00162693, Final residual = 7.47083e-06, No Iterations 8
ExecutionTime = 6.55 s  ClockTime = 7 s

forces wings output:
    sum of forces:
        pressure : (11.8983 32.6903 -1.30819e-18)
        viscous  : (0.277673 -0.100935 1.8465e-20)
        porous   : (0 0 0)
    sum of moments:
        pressure : (-1.63451 0.594915 1.35603)
        viscous  : (0.00504675 0.0138837 -4.44961e-05)
        porous   : (0 0 0)

Time = 71

smoothSolver:  Solving for Ux, Initial residual = 0.00230304, Final residual = 1.07043e-05, No Iterations 8
smoothSolver:  Solving for Uy, Initial residual = 0.00131028, Final residual = 7.90264e-06, No Iterations 8
GAMG:  Solving for p, Initial residual = 0.00283806, Final residual = 2.00656e-05, No Iterations 4
time step continuity errors : sum local = 8.06347e-06, global = -3.61555e-17, cumulative = 3.66582e-15
smoothSolver:  Solving for nuTilda, Initial residual = 0.00158924, Final residual = 7.28793e-06, No Iterations 8
ExecutionTime = 6.64 s  ClockTime = 7 s

Time = 72

smoothSolver:  Solving for Ux, Initial residual = 0.00227721, Final residual = 1.05993e-05, No Iterations 8
smoothSolver:  Solving for Uy, Initial residual = 0.00130327, Final residual = 7.87796e-06, No Iterations 8
GAMG:  Solving for p, Initial residual = 0.00278388, Final residual = 1.66757e-05, No Iterations 4
time step continuity errors : sum local = 6.70347e-06, global = 9.64376e-17, cumulative = 3.76226e-15
smoothSolver:  Solving for nuTilda, Initial residual = 0.00155429, Final residual = 7.11101e-06, No Iterations 8
ExecutionTime = 6.73 s  ClockTime = 7 s

Time = 73

smoothSolver:  Solving for Ux, Initial residual = 0.00225298, Final residual = 1.05016e-05, No Iterations 8
smoothSolver:  Solving for Uy, Initial residual = 0.00129612, Final residual = 7.85144e-06, No Iterations 8
GAMG:  Solving for p, Initial residual = 0.00273675, Final residual = 1.78067e-05, No Iterations 4
time step continuity errors : sum local = 7.14709e-06, global = -2.99613e-16, cumulative = 3.46264e-15
smoothSolver:  Solving for nuTilda, Initial residual = 0.00151935, Final residual = 6.93641e-06, No Iterations 8
ExecutionTime = 6.81 s  ClockTime = 7 s

Time = 74

smoothSolver:  Solving for Ux, Initial residual = 0.00222809, Final residual = 1.03974e-05, No Iterations 8
smoothSolver:  Solving for Uy, Initial residual = 0.00129035, Final residual = 7.82999e-06, No Iterations 8
GAMG:  Solving for p, Initial residual = 0.00269136, Final residual = 1.86245e-05, No Iterations 4
time step continuity errors : sum local = 7.47468e-06, global = 3.49446e-17, cumulative = 3.49759e-15
smoothSolver:  Solving for nuTilda, Initial residual = 0.00148517, Final residual = 6.76855e-06, No Iterations 8
ExecutionTime = 6.89 s  ClockTime = 7 s

Time = 75

smoothSolver:  Solving for Ux, Initial residual = 0.00220401, Final residual = 1.02967e-05, No Iterations 8
smoothSolver:  Solving for Uy, Initial residual = 0.00128416, Final residual = 7.80628e-06, No Iterations 8
GAMG:  Solving for p, Initial residual = 0.00264922, Final residual = 2.05655e-05, No Iterations 4
time step continuity errors : sum local = 8.25629e-06, global = 2.29015e-16, cumulative = 3.7266e-15
smoothSolver:  Solving for nuTilda, Initial residual = 0.00145221, Final residual = 6.60629e-06, No Iterations 8
ExecutionTime = 6.98 s  ClockTime = 7 s

forces wings output:
    sum of forces:
        pressure : (12.1768 33.4554 -1.32655e-18)
        viscous  : (0.266031 -0.0967181 1.91713e-20)
        porous   : (0 0 0)
    sum of moments:
        pressure : (-1.67277 0.608839 1.41742)
        viscous  : (0.00483591 0.0133015 -3.86549e-05)
        porous   : (0 0 0)

Time = 76

smoothSolver:  Solving for Ux, Initial residual = 0.00218108, Final residual = 1.02018e-05, No Iterations 8
smoothSolver:  Solving for Uy, Initial residual = 0.00127722, Final residual = 7.77845e-06, No Iterations 8
GAMG:  Solving for p, Initial residual = 0.00260936, Final residual = 2.19743e-05, No Iterations 4
time step continuity errors : sum local = 8.83041e-06, global = 1.34935e-16, cumulative = 3.86154e-15
smoothSolver:  Solving for nuTilda, Initial residual = 0.00141974, Final residual = 6.44965e-06, No Iterations 8
ExecutionTime = 7.07 s  ClockTime = 7 s

Time = 77

smoothSolver:  Solving for Ux, Initial residual = 0.00215931, Final residual = 1.01121e-05, No Iterations 8
smoothSolver:  Solving for Uy, Initial residual = 0.00126975, Final residual = 7.74741e-06, No Iterations 8
GAMG:  Solving for p, Initial residual = 0.00256947, Final residual = 2.23946e-05, No Iterations 4
time step continuity errors : sum local = 9.00435e-06, global = -3.78232e-17, cumulative = 3.82371e-15
smoothSolver:  Solving for nuTilda, Initial residual = 0.001388, Final residual = 6.29857e-06, No Iterations 8
ExecutionTime = 7.15 s  ClockTime = 7 s

Time = 78

smoothSolver:  Solving for Ux, Initial residual = 0.00213816, Final residual = 1.00247e-05, No Iterations 8
smoothSolver:  Solving for Uy, Initial residual = 0.00126227, Final residual = 7.7156e-06, No Iterations 8
GAMG:  Solving for p, Initial residual = 0.00253007, Final residual = 2.20563e-05, No Iterations 4
time step continuity errors : sum local = 8.86801e-06, global = -1.92801e-16, cumulative = 3.63091e-15
smoothSolver:  Solving for nuTilda, Initial residual = 0.00135706, Final residual = 6.15271e-06, No Iterations 8
ExecutionTime = 7.24 s  ClockTime = 7 s

Time = 79

smoothSolver:  Solving for Ux, Initial residual = 0.00211712, Final residual = 9.93669e-06, No Iterations 8
smoothSolver:  Solving for Uy, Initial residual = 0.00125529, Final residual = 7.68536e-06, No Iterations 8
GAMG:  Solving for p, Initial residual = 0.00248965, Final residual = 2.15075e-05, No Iterations 4
time step continuity errors : sum local = 8.64542e-06, global = -1.01831e-16, cumulative = 3.52908e-15
smoothSolver:  Solving for nuTilda, Initial residual = 0.00132677, Final residual = 6.0114e-06, No Iterations 8
ExecutionTime = 7.32 s  ClockTime = 7 s

Time = 80

smoothSolver:  Solving for Ux, Initial residual = 0.00209608, Final residual = 9.84754e-06, No Iterations 8
smoothSolver:  Solving for Uy, Initial residual = 0.00124885, Final residual = 7.65702e-06, No Iterations 8
GAMG:  Solving for p, Initial residual = 0.00245153, Final residual = 2.11859e-05, No Iterations 4
time step continuity errors : sum local = 8.51581e-06, global = -1.04257e-16, cumulative = 3.42483e-15
smoothSolver:  Solving for nuTilda, Initial residual = 0.00129743, Final residual = 5.87519e-06, No Iterations 8
ExecutionTime = 7.41 s  ClockTime = 7 s

forces wings output:
    sum of forces:
        pressure : (12.4749 34.2746 -1.34298e-18)
        viscous  : (0.254768 -0.0926336 2.00603e-20)
        porous   : (0 0 0)
    sum of moments:
        pressure : (-1.71373 0.623747 1.48089)
        viscous  : (0.00463168 0.0127384 -3.47051e-05)
        porous   : (0 0 0)

Time = 81

smoothSolver:  Solving for Ux, Initial residual = 0.00207536, Final residual = 9.75902e-06, No Iterations 8
smoothSolver:  Solving for Uy, Initial residual = 0.00124272, Final residual = 7.62939e-06, No Iterations 8
GAMG:  Solving for p, Initial residual = 0.00241524, Final residual = 2.13399e-05, No Iterations 4
time step continuity errors : sum local = 8.57893e-06, global = 2.02247e-16, cumulative = 3.62707e-15
smoothSolver:  Solving for nuTilda, Initial residual = 0.00126873, Final residual = 5.74372e-06, No Iterations 8
ExecutionTime = 7.5 s  ClockTime = 7 s

Time = 82

smoothSolver:  Solving for Ux, Initial residual = 0.00205538, Final residual = 9.673e-06, No Iterations 8
smoothSolver:  Solving for Uy, Initial residual = 0.00123644, Final residual = 7.60055e-06, No Iterations 8
GAMG:  Solving for p, Initial residual = 0.00238169, Final residual = 2.17592e-05, No Iterations 4
time step continuity errors : sum local = 8.74958e-06, global = -1.83926e-17, cumulative = 3.60868e-15
smoothSolver:  Solving for nuTilda, Initial residual = 0.00124087, Final residual = 5.61659e-06, No Iterations 8
ExecutionTime = 7.58 s  ClockTime = 8 s

Time = 83

smoothSolver:  Solving for Ux, Initial residual = 0.00203619, Final residual = 9.59026e-06, No Iterations 8
smoothSolver:  Solving for Uy, Initial residual = 0.00122985, Final residual = 7.56961e-06, No Iterations 8
GAMG:  Solving for p, Initial residual = 0.00234999, Final residual = 2.21171e-05, No Iterations 4
time step continuity errors : sum local = 8.89588e-06, global = 1.03771e-16, cumulative = 3.71245e-15
smoothSolver:  Solving for nuTilda, Initial residual = 0.00121359, Final residual = 5.4932e-06, No Iterations 8
ExecutionTime = 7.66 s  ClockTime = 8 s

Time = 84

smoothSolver:  Solving for Ux, Initial residual = 0.00201772, Final residual = 9.51015e-06, No Iterations 8
smoothSolver:  Solving for Uy, Initial residual = 0.00122293, Final residual = 7.53656e-06, No Iterations 8
GAMG:  Solving for p, Initial residual = 0.00232039, Final residual = 2.22283e-05, No Iterations 4
time step continuity errors : sum local = 8.94279e-06, global = 9.81709e-17, cumulative = 3.81062e-15
smoothSolver:  Solving for nuTilda, Initial residual = 0.00118707, Final residual = 5.37367e-06, No Iterations 8
ExecutionTime = 7.75 s  ClockTime = 8 s

Time = 85

smoothSolver:  Solving for Ux, Initial residual = 0.00199965, Final residual = 9.43146e-06, No Iterations 8
smoothSolver:  Solving for Uy, Initial residual = 0.00121595, Final residual = 7.50265e-06, No Iterations 8
GAMG:  Solving for p, Initial residual = 0.00228993, Final residual = 2.21521e-05, No Iterations 4
time step continuity errors : sum local = 8.91394e-06, global = -1.00558e-16, cumulative = 3.71006e-15
smoothSolver:  Solving for nuTilda, Initial residual = 0.00116148, Final residual = 5.25807e-06, No Iterations 8
ExecutionTime = 7.83 s  ClockTime = 8 s

forces wings output:
    sum of forces:
        pressure : (12.7722 35.0913 -1.35831e-18)
        viscous  : (0.243935 -0.0886992 2.09995e-20)
        porous   : (0 0 0)
    sum of moments:
        pressure : (-1.75457 0.63861 1.54496)
        viscous  : (0.00443496 0.0121968 -3.22643e-05)
        porous   : (0 0 0)

Time = 86

smoothSolver:  Solving for Ux, Initial residual = 0.0019818, Final residual = 9.35329e-06, No Iterations 8
smoothSolver:  Solving for Uy, Initial residual = 0.00120914, Final residual = 7.46902e-06, No Iterations 8
GAMG:  Solving for p, Initial residual = 0.00226183, Final residual = 2.20611e-05, No Iterations 4
time step continuity errors : sum local = 8.87913e-06, global = 1.00121e-16, cumulative = 3.81018e-15
smoothSolver:  Solving for nuTilda, Initial residual = 0.00113718, Final residual = 5.14858e-06, No Iterations 8
ExecutionTime = 7.92 s  ClockTime = 8 s

Time = 87

smoothSolver:  Solving for Ux, Initial residual = 0.00196418, Final residual = 9.27566e-06, No Iterations 8
smoothSolver:  Solving for Uy, Initial residual = 0.00120263, Final residual = 7.43628e-06, No Iterations 8
GAMG:  Solving for p, Initial residual = 0.00223397, Final residual = 2.2126e-05, No Iterations 4
time step continuity errors : sum local = 8.90729e-06, global = 1.52872e-16, cumulative = 3.96306e-15
smoothSolver:  Solving for nuTilda, Initial residual = 0.00111349, Final residual = 5.04418e-06, No Iterations 8
ExecutionTime = 8 s  ClockTime = 8 s

Time = 88

smoothSolver:  Solving for Ux, Initial residual = 0.00194691, Final residual = 9.19888e-06, No Iterations 8
smoothSolver:  Solving for Uy, Initial residual = 0.00119631, Final residual = 7.40386e-06, No Iterations 8
GAMG:  Solving for p, Initial residual = 0.00220833, Final residual = 1.56735e-05, No Iterations 5
time step continuity errors : sum local = 6.34313e-06, global = -7.347e-17, cumulative = 3.88959e-15
smoothSolver:  Solving for nuTilda, Initial residual = 0.00108975, Final residual = 4.93806e-06, No Iterations 8
ExecutionTime = 8.09 s  ClockTime = 8 s

Time = 89

smoothSolver:  Solving for Ux, Initial residual = 0.00193073, Final residual = 9.12791e-06, No Iterations 8
smoothSolver:  Solving for Uy, Initial residual = 0.00118938, Final residual = 7.36855e-06, No Iterations 8
GAMG:  Solving for p, Initial residual = 0.00218414, Final residual = 1.9299e-05, No Iterations 4
time step continuity errors : sum local = 7.77102e-06, global = 1.79306e-16, cumulative = 4.06889e-15
smoothSolver:  Solving for nuTilda, Initial residual = 0.00106699, Final residual = 4.83441e-06, No Iterations 8
ExecutionTime = 8.17 s  ClockTime = 8 s

Time = 90

smoothSolver:  Solving for Ux, Initial residual = 0.00191412, Final residual = 9.0529e-06, No Iterations 8
smoothSolver:  Solving for Uy, Initial residual = 0.00118309, Final residual = 7.33513e-06, No Iterations 8
GAMG:  Solving for p, Initial residual = 0.00216045, Final residual = 1.94798e-05, No Iterations 4
time step continuity errors : sum local = 7.85434e-06, global = -1.20767e-16, cumulative = 3.94812e-15
smoothSolver:  Solving for nuTilda, Initial residual = 0.00104514, Final residual = 4.7332e-06, No Iterations 8
ExecutionTime = 8.26 s  ClockTime = 8 s

forces wings output:
    sum of forces:
        pressure : (13.0631 35.8906 -1.37644e-18)
        viscous  : (0.233655 -0.0849643 2.19633e-20)
        porous   : (0 0 0)
    sum of moments:
        pressure : (-1.79453 0.653155 1.6065)
        viscous  : (0.00424822 0.0116828 -3.03204e-05)
        porous   : (0 0 0)

Time = 91

smoothSolver:  Solving for Ux, Initial residual = 0.00189773, Final residual = 8.97894e-06, No Iterations 8
smoothSolver:  Solving for Uy, Initial residual = 0.00117674, Final residual = 7.30119e-06, No Iterations 8
GAMG:  Solving for p, Initial residual = 0.00213746, Final residual = 1.97035e-05, No Iterations 4
time step continuity errors : sum local = 7.94498e-06, global = -1.54896e-17, cumulative = 3.93264e-15
smoothSolver:  Solving for nuTilda, Initial residual = 0.00102403, Final residual = 4.63215e-06, No Iterations 8
ExecutionTime = 8.35 s  ClockTime = 8 s

Time = 92

smoothSolver:  Solving for Ux, Initial residual = 0.00188184, Final residual = 8.90753e-06, No Iterations 8
smoothSolver:  Solving for Uy, Initial residual = 0.00117026, Final residual = 7.26619e-06, No Iterations 8
GAMG:  Solving for p, Initial residual = 0.00211612, Final residual = 1.98392e-05, No Iterations 4
time step continuity errors : sum local = 7.99632e-06, global = 7.12357e-17, cumulative = 4.00387e-15
smoothSolver:  Solving for nuTilda, Initial residual = 0.00100362, Final residual = 4.53361e-06, No Iterations 8
ExecutionTime = 8.44 s  ClockTime = 8 s

Time = 93

smoothSolver:  Solving for Ux, Initial residual = 0.00186649, Final residual = 8.83875e-06, No Iterations 8
smoothSolver:  Solving for Uy, Initial residual = 0.00116353, Final residual = 7.22955e-06, No Iterations 8
GAMG:  Solving for p, Initial residual = 0.00209382, Final residual = 1.97633e-05, No Iterations 4
time step continuity errors : sum local = 7.96403e-06, global = 4.72282e-17, cumulative = 4.0511e-15
smoothSolver:  Solving for nuTilda, Initial residual = 0.000983291, Final residual = 4.4404e-06, No Iterations 8
ExecutionTime = 8.52 s  ClockTime = 9 s

Time = 94

smoothSolver:  Solving for Ux, Initial residual = 0.00185156, Final residual = 8.77221e-06, No Iterations 8
smoothSolver:  Solving for Uy, Initial residual = 0.00115649, Final residual = 7.19098e-06, No Iterations 8
GAMG:  Solving for p, Initial residual = 0.00207098, Final residual = 1.94595e-05, No Iterations 4
time step continuity errors : sum local = 7.84437e-06, global = -4.46034e-17, cumulative = 4.0065e-15
smoothSolver:  Solving for nuTilda, Initial residual = 0.000963164, Final residual = 4.35104e-06, No Iterations 8
ExecutionTime = 8.61 s  ClockTime = 9 s

Time = 95

smoothSolver:  Solving for Ux, Initial residual = 0.00183686, Final residual = 8.70691e-06, No Iterations 8
smoothSolver:  Solving for Uy, Initial residual = 0.00114928, Final residual = 7.1511e-06, No Iterations 8
GAMG:  Solving for p, Initial residual = 0.00204762, Final residual = 1.91392e-05, No Iterations 4
time step continuity errors : sum local = 7.72078e-06, global = -1.66567e-16, cumulative = 3.83993e-15
smoothSolver:  Solving for nuTilda, Initial residual = 0.000943526, Final residual = 4.26505e-06, No Iterations 8
ExecutionTime = 8.69 s  ClockTime = 9 s

forces wings output:
    sum of forces:
        pressure : (13.3649 36.7197 -1.3917e-18)
        viscous  : (0.224198 -0.0815216 2.29581e-20)
        porous   : (0 0 0)
    sum of moments:
        pressure : (-1.83598 0.668244 1.66638)
        viscous  : (0.00407608 0.0112099 -3.00093e-05)
        porous   : (0 0 0)

Time = 96

smoothSolver:  Solving for Ux, Initial residual = 0.00182227, Final residual = 8.64252e-06, No Iterations 8
smoothSolver:  Solving for Uy, Initial residual = 0.00114214, Final residual = 7.11119e-06, No Iterations 8
GAMG:  Solving for p, Initial residual = 0.00202573, Final residual = 1.9011e-05, No Iterations 4
time step continuity errors : sum local = 7.67496e-06, global = 1.09792e-16, cumulative = 3.94972e-15
smoothSolver:  Solving for nuTilda, Initial residual = 0.000924028, Final residual = 4.18111e-06, No Iterations 8
ExecutionTime = 8.78 s  ClockTime = 9 s

Time = 97

smoothSolver:  Solving for Ux, Initial residual = 0.00180781, Final residual = 8.57868e-06, No Iterations 8
smoothSolver:  Solving for Uy, Initial residual = 0.00113515, Final residual = 7.07186e-06, No Iterations 8
GAMG:  Solving for p, Initial residual = 0.00200674, Final residual = 1.91628e-05, No Iterations 4
time step continuity errors : sum local = 7.74108e-06, global = -3.18172e-17, cumulative = 3.9179e-15
smoothSolver:  Solving for nuTilda, Initial residual = 0.00090494, Final residual = 4.09935e-06, No Iterations 8
ExecutionTime = 8.87 s  ClockTime = 9 s

Time = 98

smoothSolver:  Solving for Ux, Initial residual = 0.00179365, Final residual = 8.51561e-06, No Iterations 8
smoothSolver:  Solving for Uy, Initial residual = 0.00112833, Final residual = 7.03291e-06, No Iterations 8
GAMG:  Solving for p, Initial residual = 0.00198894, Final residual = 1.93641e-05, No Iterations 4
time step continuity errors : sum local = 7.82604e-06, global = 1.91134e-16, cumulative = 4.10904e-15
smoothSolver:  Solving for nuTilda, Initial residual = 0.000886765, Final residual = 4.0193e-06, No Iterations 8
ExecutionTime = 8.96 s  ClockTime = 9 s

Time = 99

smoothSolver:  Solving for Ux, Initial residual = 0.00177973, Final residual = 8.45336e-06, No Iterations 8
smoothSolver:  Solving for Uy, Initial residual = 0.00112155, Final residual = 6.99375e-06, No Iterations 8
GAMG:  Solving for p, Initial residual = 0.00197291, Final residual = 1.9502e-05, No Iterations 4
time step continuity errors : sum local = 7.88463e-06, global = 1.60406e-17, cumulative = 4.12508e-15
smoothSolver:  Solving for nuTilda, Initial residual = 0.000868901, Final residual = 3.94262e-06, No Iterations 8
ExecutionTime = 9.04 s  ClockTime = 9 s

Time = 100

smoothSolver:  Solving for Ux, Initial residual = 0.00176601, Final residual = 8.39219e-06, No Iterations 8
smoothSolver:  Solving for Uy, Initial residual = 0.00111472, Final residual = 6.95414e-06, No Iterations 8
GAMG:  Solving for p, Initial residual = 0.00195718, Final residual = 1.94607e-05, No Iterations 4
time step continuity errors : sum local = 7.87043e-06, global = -1.81733e-16, cumulative = 3.94335e-15
smoothSolver:  Solving for nuTilda, Initial residual = 0.000852045, Final residual = 3.87008e-06, No Iterations 8
ExecutionTime = 9.13 s  ClockTime = 9 s

forces wings output:
    sum of forces:
        pressure : (13.6577 37.5243 -1.40575e-18)
        viscous  : (0.215418 -0.0783269 2.39555e-20)
        porous   : (0 0 0)
    sum of moments:
        pressure : (-1.87621 0.682886 1.72026)
        viscous  : (0.00391634 0.0107709 -2.95173e-05)
        porous   : (0 0 0)

Time = 101

smoothSolver:  Solving for Ux, Initial residual = 0.00175247, Final residual = 8.33183e-06, No Iterations 8
smoothSolver:  Solving for Uy, Initial residual = 0.00110781, Final residual = 6.91425e-06, No Iterations 8
GAMG:  Solving for p, Initial residual = 0.0019416, Final residual = 1.10839e-05, No Iterations 5
time step continuity errors : sum local = 4.50624e-06, global = 1.61158e-16, cumulative = 4.1045e-15
smoothSolver:  Solving for nuTilda, Initial residual = 0.000835284, Final residual = 3.79714e-06, No Iterations 8
ExecutionTime = 9.22 s  ClockTime = 9 s

Time = 102

smoothSolver:  Solving for Ux, Initial residual = 0.00173928, Final residual = 8.27343e-06, No Iterations 8
smoothSolver:  Solving for Uy, Initial residual = 0.00110068, Final residual = 6.87344e-06, No Iterations 8
GAMG:  Solving for p, Initial residual = 0.00192582, Final residual = 1.23362e-05, No Iterations 5
time step continuity errors : sum local = 5.01279e-06, global = -3.2453e-19, cumulative = 4.10418e-15
smoothSolver:  Solving for nuTilda, Initial residual = 0.000819061, Final residual = 3.72677e-06, No Iterations 8
ExecutionTime = 9.3 s  ClockTime = 9 s

Time = 103

smoothSolver:  Solving for Ux, Initial residual = 0.00172592, Final residual = 8.21432e-06, No Iterations 8
smoothSolver:  Solving for Uy, Initial residual = 0.00109395, Final residual = 6.83385e-06, No Iterations 8
GAMG:  Solving for p, Initial residual = 0.00190917, Final residual = 1.90774e-05, No Iterations 4
time step continuity errors : sum local = 7.72296e-06, global = 7.38208e-17, cumulative = 4.178e-15
smoothSolver:  Solving for nuTilda, Initial residual = 0.000803754, Final residual = 3.65926e-06, No Iterations 8
ExecutionTime = 9.39 s  ClockTime = 9 s

Time = 104

smoothSolver:  Solving for Ux, Initial residual = 0.00171242, Final residual = 8.1533e-06, No Iterations 8
smoothSolver:  Solving for Uy, Initial residual = 0.00108771, Final residual = 6.79551e-06, No Iterations 8
GAMG:  Solving for p, Initial residual = 0.00189202, Final residual = 1.10286e-05, No Iterations 5
time step continuity errors : sum local = 4.48831e-06, global = 4.80926e-17, cumulative = 4.22609e-15
smoothSolver:  Solving for nuTilda, Initial residual = 0.000789028, Final residual = 3.59377e-06, No Iterations 8
ExecutionTime = 9.47 s  ClockTime = 9 s

Time = 105

smoothSolver:  Solving for Ux, Initial residual = 0.00169966, Final residual = 8.09678e-06, No Iterations 8
smoothSolver:  Solving for Uy, Initial residual = 0.00108074, Final residual = 6.75488e-06, No Iterations 8
GAMG:  Solving for p, Initial residual = 0.00187781, Final residual = 1.28988e-05, No Iterations 5
time step continuity errors : sum local = 5.25151e-06, global = 2.2852e-16, cumulative = 4.45461e-15
smoothSolver:  Solving for nuTilda, Initial residual = 0.000775034, Final residual = 3.52979e-06, No Iterations 8
ExecutionTime = 9.56 s  ClockTime = 10 s

forces wings output:
    sum of forces:
        pressure : (13.9447 38.3128 -1.41822e-18)
        viscous  : (0.207116 -0.0753039 2.47929e-20)
        porous   : (0 0 0)
    sum of moments:
        pressure : (-1.91564 0.697237 1.77404)
        viscous  : (0.00376519 0.0103558 -2.95184e-05)
        porous   : (0 0 0)

Time = 106

smoothSolver:  Solving for Ux, Initial residual = 0.00168712, Final residual = 8.0419e-06, No Iterations 8
smoothSolver:  Solving for Uy, Initial residual = 0.00107368, Final residual = 6.71344e-06, No Iterations 8
GAMG:  Solving for p, Initial residual = 0.00186402, Final residual = 1.12478e-05, No Iterations 5
time step continuity errors : sum local = 4.58832e-06, global = 1.34366e-16, cumulative = 4.58898e-15
smoothSolver:  Solving for nuTilda, Initial residual = 0.00076128, Final residual = 3.46765e-06, No Iterations 8
ExecutionTime = 9.65 s  ClockTime = 10 s

Time = 107

smoothSolver:  Solving for Ux, Initial residual = 0.00167457, Final residual = 7.9862e-06, No Iterations 8
smoothSolver:  Solving for Uy, Initial residual = 0.00106668, Final residual = 6.67193e-06, No Iterations 8
GAMG:  Solving for p, Initial residual = 0.00184938, Final residual = 1.28552e-05, No Iterations 5
time step continuity errors : sum local = 5.23849e-06, global = -6.23152e-17, cumulative = 4.52666e-15
smoothSolver:  Solving for nuTilda, Initial residual = 0.000747897, Final residual = 3.407e-06, No Iterations 8
ExecutionTime = 9.74 s  ClockTime = 10 s

Time = 108

smoothSolver:  Solving for Ux, Initial residual = 0.00166191, Final residual = 7.93067e-06, No Iterations 8
smoothSolver:  Solving for Uy, Initial residual = 0.00105981, Final residual = 6.63097e-06, No Iterations 8
GAMG:  Solving for p, Initial residual = 0.0018339, Final residual = 1.11246e-05, No Iterations 5
time step continuity errors : sum local = 4.541e-06, global = -9.88774e-17, cumulative = 4.42779e-15
smoothSolver:  Solving for nuTilda, Initial residual = 0.000735267, Final residual = 3.34605e-06, No Iterations 8
ExecutionTime = 9.83 s  ClockTime = 10 s

Time = 109

smoothSolver:  Solving for Ux, Initial residual = 0.00164935, Final residual = 7.87523e-06, No Iterations 8
smoothSolver:  Solving for Uy, Initial residual = 0.00105303, Final residual = 6.59048e-06, No Iterations 8
GAMG:  Solving for p, Initial residual = 0.00181883, Final residual = 1.27842e-05, No Iterations 5
time step continuity errors : sum local = 5.2139e-06, global = 7.95936e-17, cumulative = 4.50738e-15
smoothSolver:  Solving for nuTilda, Initial residual = 0.000723105, Final residual = 3.28719e-06, No Iterations 8
ExecutionTime = 9.92 s  ClockTime = 10 s

Time = 110

smoothSolver:  Solving for Ux, Initial residual = 0.001637, Final residual = 7.82105e-06, No Iterations 8
smoothSolver:  Solving for Uy, Initial residual = 0.00104627, Final residual = 6.54995e-06, No Iterations 8
GAMG:  Solving for p, Initial residual = 0.00180401, Final residual = 1.1264e-05, No Iterations 5
time step continuity errors : sum local = 4.6057e-06, global = -1.77526e-17, cumulative = 4.48963e-15
smoothSolver:  Solving for nuTilda, Initial residual = 0.000711245, Final residual = 3.23314e-06, No Iterations 8
ExecutionTime = 10 s  ClockTime = 10 s

forces wings output:
    sum of forces:
        pressure : (14.2224 39.0758 -1.42909e-18)
        viscous  : (0.199187 -0.072414 2.57858e-20)
        porous   : (0 0 0)
    sum of moments:
        pressure : (-1.95379 0.711122 1.82432)
        viscous  : (0.0036207 0.00995937 -3.03204e-05)
        porous   : (0 0 0)

Time = 111

smoothSolver:  Solving for Ux, Initial residual = 0.00162483, Final residual = 7.76725e-06, No Iterations 8
smoothSolver:  Solving for Uy, Initial residual = 0.00103946, Final residual = 6.50904e-06, No Iterations 8
GAMG:  Solving for p, Initial residual = 0.0017894, Final residual = 1.32533e-05, No Iterations 5
time step continuity errors : sum local = 5.41348e-06, global = -2.96576e-17, cumulative = 4.45997e-15
smoothSolver:  Solving for nuTilda, Initial residual = 0.000699567, Final residual = 3.18061e-06, No Iterations 8
ExecutionTime = 10.09 s  ClockTime = 10 s

Time = 112

smoothSolver:  Solving for Ux, Initial residual = 0.00161275, Final residual = 7.71465e-06, No Iterations 8
smoothSolver:  Solving for Uy, Initial residual = 0.00103254, Final residual = 6.46732e-06, No Iterations 8
GAMG:  Solving for p, Initial residual = 0.00177483, Final residual = 1.11894e-05, No Iterations 5
time step continuity errors : sum local = 4.58096e-06, global = -1.44837e-16, cumulative = 4.31513e-15
smoothSolver:  Solving for nuTilda, Initial residual = 0.000687732, Final residual = 3.12787e-06, No Iterations 8
ExecutionTime = 10.18 s  ClockTime = 10 s

Time = 113

smoothSolver:  Solving for Ux, Initial residual = 0.00160075, Final residual = 7.66181e-06, No Iterations 8
smoothSolver:  Solving for Uy, Initial residual = 0.00102558, Final residual = 6.42531e-06, No Iterations 8
GAMG:  Solving for p, Initial residual = 0.00176004, Final residual = 1.29948e-05, No Iterations 5
time step continuity errors : sum local = 5.31312e-06, global = -4.50178e-17, cumulative = 4.27011e-15
smoothSolver:  Solving for nuTilda, Initial residual = 0.000676142, Final residual = 3.07721e-06, No Iterations 8
ExecutionTime = 10.27 s  ClockTime = 10 s

Time = 114

smoothSolver:  Solving for Ux, Initial residual = 0.00158873, Final residual = 7.60962e-06, No Iterations 8
smoothSolver:  Solving for Uy, Initial residual = 0.00101868, Final residual = 6.38359e-06, No Iterations 8
GAMG:  Solving for p, Initial residual = 0.00174437, Final residual = 1.10549e-05, No Iterations 5
time step continuity errors : sum local = 4.53098e-06, global = 3.0791e-17, cumulative = 4.30091e-15
smoothSolver:  Solving for nuTilda, Initial residual = 0.000664639, Final residual = 3.02806e-06, No Iterations 8
ExecutionTime = 10.35 s  ClockTime = 10 s

Time = 115

smoothSolver:  Solving for Ux, Initial residual = 0.00157681, Final residual = 7.55707e-06, No Iterations 8
smoothSolver:  Solving for Uy, Initial residual = 0.00101183, Final residual = 6.34222e-06, No Iterations 8
GAMG:  Solving for p, Initial residual = 0.00172868, Final residual = 1.29314e-05, No Iterations 5
time step continuity errors : sum local = 5.29245e-06, global = -3.01393e-16, cumulative = 3.99951e-15
smoothSolver:  Solving for nuTilda, Initial residual = 0.000653283, Final residual = 2.98046e-06, No Iterations 8
ExecutionTime = 10.44 s  ClockTime = 10 s

forces wings output:
    sum of forces:
        pressure : (14.4922 39.8171 -1.44395e-18)
        viscous  : (0.191655 -0.0696665 2.72874e-20)
        porous   : (0 0 0)
    sum of moments:
        pressure : (-1.99086 0.724612 1.87134)
        viscous  : (0.00348333 0.00958274 -3.14889e-05)
        porous   : (0 0 0)

Time = 116

smoothSolver:  Solving for Ux, Initial residual = 0.00156498, Final residual = 7.50532e-06, No Iterations 8
smoothSolver:  Solving for Uy, Initial residual = 0.00100505, Final residual = 6.30111e-06, No Iterations 8
GAMG:  Solving for p, Initial residual = 0.00171273, Final residual = 1.10217e-05, No Iterations 5
time step continuity errors : sum local = 4.52396e-06, global = 6.60507e-17, cumulative = 4.06556e-15
smoothSolver:  Solving for nuTilda, Initial residual = 0.000642212, Final residual = 2.9344e-06, No Iterations 8
ExecutionTime = 10.53 s  ClockTime = 11 s

Time = 117

smoothSolver:  Solving for Ux, Initial residual = 0.00155328, Final residual = 7.45381e-06, No Iterations 8
smoothSolver:  Solving for Uy, Initial residual = 0.000998255, Final residual = 6.25985e-06, No Iterations 8
GAMG:  Solving for p, Initial residual = 0.00169651, Final residual = 1.29738e-05, No Iterations 5
time step continuity errors : sum local = 5.31665e-06, global = 8.82994e-18, cumulative = 4.07439e-15
smoothSolver:  Solving for nuTilda, Initial residual = 0.000632059, Final residual = 2.88752e-06, No Iterations 8
ExecutionTime = 10.62 s  ClockTime = 11 s

Time = 118

smoothSolver:  Solving for Ux, Initial residual = 0.00154163, Final residual = 7.4031e-06, No Iterations 8
smoothSolver:  Solving for Uy, Initial residual = 0.000991452, Final residual = 6.21856e-06, No Iterations 8
GAMG:  Solving for p, Initial residual = 0.00168031, Final residual = 1.05876e-05, No Iterations 5
time step continuity errors : sum local = 4.32702e-06, global = -1.91241e-16, cumulative = 3.88315e-15
smoothSolver:  Solving for nuTilda, Initial residual = 0.000621528, Final residual = 2.84455e-06, No Iterations 8
ExecutionTime = 10.71 s  ClockTime = 11 s

Time = 119

smoothSolver:  Solving for Ux, Initial residual = 0.00153009, Final residual = 7.35264e-06, No Iterations 8
smoothSolver:  Solving for Uy, Initial residual = 0.000984569, Final residual = 6.17697e-06, No Iterations 8
GAMG:  Solving for p, Initial residual = 0.00166368, Final residual = 1.04418e-05, No Iterations 5
time step continuity errors : sum local = 4.28752e-06, global = 2.20754e-16, cumulative = 4.10391e-15
smoothSolver:  Solving for nuTilda, Initial residual = 0.000611176, Final residual = 2.80394e-06, No Iterations 8
ExecutionTime = 10.8 s  ClockTime = 11 s

Time = 120

smoothSolver:  Solving for Ux, Initial residual = 0.00151856, Final residual = 7.30177e-06, No Iterations 8
smoothSolver:  Solving for Uy, Initial residual = 0.000977843, Final residual = 6.13574e-06, No Iterations 8
GAMG:  Solving for p, Initial residual = 0.00164635, Final residual = 1.23121e-05, No Iterations 5
time step continuity errors : sum local = 5.05316e-06, global = 2.00561e-17, cumulative = 4.12396e-15
smoothSolver:  Solving for nuTilda, Initial residual = 0.000601228, Final residual = 2.76572e-06, No Iterations 8
ExecutionTime = 10.89 s  ClockTime = 11 s

forces wings output:
    sum of forces:
        pressure : (14.7493 40.5233 -1.4567e-18)
        viscous  : (0.184529 -0.067065 2.89381e-20)
        porous   : (0 0 0)
    sum of moments:
        pressure : (-2.02616 0.737463 1.91371)
        viscous  : (0.00335325 0.00922643 -3.32739e-05)
        porous   : (0 0 0)

Time = 121

smoothSolver:  Solving for Ux, Initial residual = 0.00150708, Final residual = 7.25176e-06, No Iterations 8
smoothSolver:  Solving for Uy, Initial residual = 0.000971177, Final residual = 6.09471e-06, No Iterations 8
GAMG:  Solving for p, Initial residual = 0.00162922, Final residual = 1.07305e-05, No Iterations 5
time step continuity errors : sum local = 4.39845e-06, global = 5.70985e-17, cumulative = 4.18106e-15
smoothSolver:  Solving for nuTilda, Initial residual = 0.000591718, Final residual = 2.72955e-06, No Iterations 8
ExecutionTime = 10.98 s  ClockTime = 11 s

Time = 122

smoothSolver:  Solving for Ux, Initial residual = 0.00149577, Final residual = 7.2023e-06, No Iterations 8
smoothSolver:  Solving for Uy, Initial residual = 0.000964487, Final residual = 6.05371e-06, No Iterations 8
GAMG:  Solving for p, Initial residual = 0.0016124, Final residual = 1.01759e-05, No Iterations 5
[...]

forces wings output:
    sum of forces:
        pressure : (9.21669 25.3226 -2.57238e-19)
        viscous  : (0.0854133 -0.0309638 1.01307e-20)
        porous   : (0 0 0)
    sum of moments:
        pressure : (-1.26613 0.460834 4.07841)
        viscous  : (0.00154819 0.00427067 -3.54831e-05)
        porous   : (0 0 0)

Time = 4971

smoothSolver:  Solving for Ux, Initial residual = 5.37873e-08, Final residual = 3.55966e-09, No Iterations 4
smoothSolver:  Solving for Uy, Initial residual = 2.54748e-07, Final residual = 5.10633e-09, No Iterations 6
GAMG:  Solving for p, Initial residual = 9.90721e-07, Final residual = 9.90721e-07, No Iterations 0
time step continuity errors : sum local = 4.17791e-07, global = -4.93719e-17, cumulative = 6.14755e-14
smoothSolver:  Solving for nuTilda, Initial residual = 7.65239e-08, Final residual = 4.04479e-09, No Iterations 4
ExecutionTime = 408.45 s  ClockTime = 409 s

Time = 4972

smoothSolver:  Solving for Ux, Initial residual = 5.31346e-08, Final residual = 3.49384e-09, No Iterations 4
smoothSolver:  Solving for Uy, Initial residual = 2.51099e-07, Final residual = 5.03387e-09, No Iterations 6
GAMG:  Solving for p, Initial residual = 1.26859e-06, Final residual = 2.43882e-07, No Iterations 1
time step continuity errors : sum local = 1.02878e-07, global = -3.16741e-17, cumulative = 6.14438e-14
smoothSolver:  Solving for nuTilda, Initial residual = 7.21514e-08, Final residual = 4.0431e-09, No Iterations 4
ExecutionTime = 408.52 s  ClockTime = 409 s

Time = 4973

smoothSolver:  Solving for Ux, Initial residual = 5.36409e-08, Final residual = 3.53375e-09, No Iterations 4
smoothSolver:  Solving for Uy, Initial residual = 2.51959e-07, Final residual = 4.97721e-09, No Iterations 6
GAMG:  Solving for p, Initial residual = 1.01572e-06, Final residual = 2.29186e-07, No Iterations 1
time step continuity errors : sum local = 9.68591e-08, global = 1.80627e-16, cumulative = 6.16245e-14
smoothSolver:  Solving for nuTilda, Initial residual = 7.56922e-08, Final residual = 4.00188e-09, No Iterations 4
ExecutionTime = 408.59 s  ClockTime = 409 s

Time = 4974

smoothSolver:  Solving for Ux, Initial residual = 5.72865e-08, Final residual = 3.79662e-09, No Iterations 4
smoothSolver:  Solving for Uy, Initial residual = 2.74396e-07, Final residual = 5.39867e-09, No Iterations 6
GAMG:  Solving for p, Initial residual = 9.77418e-07, Final residual = 9.77418e-07, No Iterations 0
time step continuity errors : sum local = 4.12243e-07, global = 1.17471e-16, cumulative = 6.17419e-14
smoothSolver:  Solving for nuTilda, Initial residual = 7.1587e-08, Final residual = 4.00579e-09, No Iterations 4
ExecutionTime = 408.66 s  ClockTime = 409 s

Time = 4975

smoothSolver:  Solving for Ux, Initial residual = 5.64918e-08, Final residual = 3.73144e-09, No Iterations 4
smoothSolver:  Solving for Uy, Initial residual = 2.69056e-07, Final residual = 5.28456e-09, No Iterations 6
GAMG:  Solving for p, Initial residual = 1.18536e-06, Final residual = 2.02624e-07, No Iterations 1
time step continuity errors : sum local = 8.56715e-08, global = 4.98586e-17, cumulative = 6.17918e-14
smoothSolver:  Solving for nuTilda, Initial residual = 7.51341e-08, Final residual = 3.96431e-09, No Iterations 4
ExecutionTime = 408.73 s  ClockTime = 409 s

forces wings output:
    sum of forces:
        pressure : (9.21652 25.3222 -2.57244e-19)
        viscous  : (0.0854156 -0.0309647 1.01222e-20)
        porous   : (0 0 0)
    sum of moments:
        pressure : (-1.26611 0.460826 4.07835)
        viscous  : (0.00154824 0.00427078 -3.54962e-05)
        porous   : (0 0 0)

Time = 4976

smoothSolver:  Solving for Ux, Initial residual = 5.54607e-08, Final residual = 3.66861e-09, No Iterations 4
smoothSolver:  Solving for Uy, Initial residual = 2.58828e-07, Final residual = 5.15404e-09, No Iterations 6
GAMG:  Solving for p, Initial residual = 1.09089e-06, Final residual = 1.8707e-07, No Iterations 1
time step continuity errors : sum local = 7.89992e-08, global = 2.17559e-16, cumulative = 6.20094e-14
smoothSolver:  Solving for nuTilda, Initial residual = 7.08946e-08, Final residual = 3.96598e-09, No Iterations 4
ExecutionTime = 408.81 s  ClockTime = 409 s

Time = 4977

smoothSolver:  Solving for Ux, Initial residual = 5.58317e-08, Final residual = 3.73217e-09, No Iterations 4
smoothSolver:  Solving for Uy, Initial residual = 2.5921e-07, Final residual = 5.15084e-09, No Iterations 6
GAMG:  Solving for p, Initial residual = 8.7725e-07, Final residual = 8.7725e-07, No Iterations 0
time step continuity errors : sum local = 3.70042e-07, global = 7.12754e-17, cumulative = 6.20806e-14
smoothSolver:  Solving for nuTilda, Initial residual = 7.46001e-08, Final residual = 3.93015e-09, No Iterations 4
ExecutionTime = 408.88 s  ClockTime = 409 s

Time = 4978

smoothSolver:  Solving for Ux, Initial residual = 5.50106e-08, Final residual = 3.6443e-09, No Iterations 4
smoothSolver:  Solving for Uy, Initial residual = 2.54332e-07, Final residual = 5.06428e-09, No Iterations 6
GAMG:  Solving for p, Initial residual = 1.13862e-06, Final residual = 2.28692e-07, No Iterations 1
time step continuity errors : sum local = 9.6642e-08, global = -7.16993e-17, cumulative = 6.20089e-14
smoothSolver:  Solving for nuTilda, Initial residual = 7.02026e-08, Final residual = 3.9224e-09, No Iterations 4
ExecutionTime = 408.95 s  ClockTime = 409 s

Time = 4979

smoothSolver:  Solving for Ux, Initial residual = 5.36558e-08, Final residual = 3.56969e-09, No Iterations 4
smoothSolver:  Solving for Uy, Initial residual = 2.48057e-07, Final residual = 5.01008e-09, No Iterations 6
GAMG:  Solving for p, Initial residual = 1.0766e-06, Final residual = 1.94294e-07, No Iterations 1
time step continuity errors : sum local = 8.2088e-08, global = -4.8891e-17, cumulative = 6.196e-14
smoothSolver:  Solving for nuTilda, Initial residual = 7.36497e-08, Final residual = 3.87227e-09, No Iterations 4
ExecutionTime = 409.02 s  ClockTime = 409 s

Time = 4980

smoothSolver:  Solving for Ux, Initial residual = 5.32364e-08, Final residual = 3.53717e-09, No Iterations 4
smoothSolver:  Solving for Uy, Initial residual = 2.57606e-07, Final residual = 5.21092e-09, No Iterations 6
GAMG:  Solving for p, Initial residual = 8.48141e-07, Final residual = 8.48141e-07, No Iterations 0
time step continuity errors : sum local = 3.57667e-07, global = -1.28242e-16, cumulative = 6.18318e-14
smoothSolver:  Solving for nuTilda, Initial residual = 6.95146e-08, Final residual = 3.87247e-09, No Iterations 4
ExecutionTime = 409.09 s  ClockTime = 409 s

forces wings output:
    sum of forces:
        pressure : (9.2166 25.3224 -2.57233e-19)
        viscous  : (0.0854138 -0.030964 1.01305e-20)
        porous   : (0 0 0)
    sum of moments:
        pressure : (-1.26612 0.46083 4.07837)
        viscous  : (0.0015482 0.00427069 -3.54826e-05)
        porous   : (0 0 0)

Time = 4981

smoothSolver:  Solving for Ux, Initial residual = 5.26971e-08, Final residual = 3.49117e-09, No Iterations 4
smoothSolver:  Solving for Uy, Initial residual = 2.53296e-07, Final residual = 5.13915e-09, No Iterations 6
GAMG:  Solving for p, Initial residual = 1.0788e-06, Final residual = 2.01407e-07, No Iterations 1
time step continuity errors : sum local = 8.51231e-08, global = -2.59119e-16, cumulative = 6.15727e-14
smoothSolver:  Solving for nuTilda, Initial residual = 7.28432e-08, Final residual = 3.81562e-09, No Iterations 4
ExecutionTime = 409.17 s  ClockTime = 409 s

Time = 4982

smoothSolver:  Solving for Ux, Initial residual = 5.12702e-08, Final residual = 3.37172e-09, No Iterations 4
smoothSolver:  Solving for Uy, Initial residual = 2.46875e-07, Final residual = 5.01901e-09, No Iterations 6
GAMG:  Solving for p, Initial residual = 1.02082e-06, Final residual = 1.77937e-07, No Iterations 1
time step continuity errors : sum local = 7.52235e-08, global = -8.2165e-17, cumulative = 6.14905e-14
smoothSolver:  Solving for nuTilda, Initial residual = 6.84675e-08, Final residual = 3.80945e-09, No Iterations 4
ExecutionTime = 409.24 s  ClockTime = 409 s

Time = 4983

smoothSolver:  Solving for Ux, Initial residual = 5.13023e-08, Final residual = 3.37996e-09, No Iterations 4
smoothSolver:  Solving for Uy, Initial residual = 2.53409e-07, Final residual = 5.03214e-09, No Iterations 6
GAMG:  Solving for p, Initial residual = 8.04428e-07, Final residual = 8.04428e-07, No Iterations 0
time step continuity errors : sum local = 3.39321e-07, global = 1.31132e-16, cumulative = 6.16216e-14
smoothSolver:  Solving for nuTilda, Initial residual = 7.20364e-08, Final residual = 3.76304e-09, No Iterations 4
ExecutionTime = 409.31 s  ClockTime = 409 s

Time = 4984

smoothSolver:  Solving for Ux, Initial residual = 5.05751e-08, Final residual = 3.31573e-09, No Iterations 4
smoothSolver:  Solving for Uy, Initial residual = 2.48582e-07, Final residual = 4.96832e-09, No Iterations 6
GAMG:  Solving for p, Initial residual = 1.00896e-06, Final residual = 2.17317e-07, No Iterations 1
time step continuity errors : sum local = 9.18852e-08, global = -1.58101e-16, cumulative = 6.14635e-14
smoothSolver:  Solving for nuTilda, Initial residual = 6.76119e-08, Final residual = 3.75783e-09, No Iterations 4
ExecutionTime = 409.38 s  ClockTime = 410 s

Time = 4985

smoothSolver:  Solving for Ux, Initial residual = 5.18057e-08, Final residual = 3.4063e-09, No Iterations 4
smoothSolver:  Solving for Uy, Initial residual = 2.39924e-07, Final residual = 4.75346e-09, No Iterations 6
GAMG:  Solving for p, Initial residual = 9.69607e-07, Final residual = 9.69607e-07, No Iterations 0
time step continuity errors : sum local = 4.08857e-07, global = 8.7353e-17, cumulative = 6.15509e-14
smoothSolver:  Solving for nuTilda, Initial residual = 7.12619e-08, Final residual = 3.71835e-09, No Iterations 4
ExecutionTime = 409.45 s  ClockTime = 410 s

forces wings output:
    sum of forces:
        pressure : (9.21654 25.3222 -2.57242e-19)
        viscous  : (0.0854161 -0.0309649 1.01219e-20)
        porous   : (0 0 0)
    sum of moments:
        pressure : (-1.26611 0.460827 4.07837)
        viscous  : (0.00154824 0.0042708 -3.54948e-05)
        porous   : (0 0 0)

Time = 4986

smoothSolver:  Solving for Ux, Initial residual = 5.11235e-08, Final residual = 3.34156e-09, No Iterations 4
smoothSolver:  Solving for Uy, Initial residual = 2.35553e-07, Final residual = 4.67201e-09, No Iterations 6
GAMG:  Solving for p, Initial residual = 9.57997e-07, Final residual = 9.57997e-07, No Iterations 0
time step continuity errors : sum local = 4.03961e-07, global = -2.45771e-16, cumulative = 6.13051e-14
smoothSolver:  Solving for nuTilda, Initial residual = 6.70609e-08, Final residual = 3.72326e-09, No Iterations 4
ExecutionTime = 409.52 s  ClockTime = 410 s

Time = 4987

smoothSolver:  Solving for Ux, Initial residual = 5.05723e-08, Final residual = 3.30607e-09, No Iterations 4
smoothSolver:  Solving for Uy, Initial residual = 2.32005e-07, Final residual = 4.61919e-09, No Iterations 6
GAMG:  Solving for p, Initial residual = 1.36563e-06, Final residual = 2.74555e-07, No Iterations 1
time step continuity errors : sum local = 1.16185e-07, global = 2.61498e-16, cumulative = 6.15666e-14
smoothSolver:  Solving for nuTilda, Initial residual = 7.03739e-08, Final residual = 3.66911e-09, No Iterations 4
ExecutionTime = 409.59 s  ClockTime = 410 s

Time = 4988

smoothSolver:  Solving for Ux, Initial residual = 5.25094e-08, Final residual = 3.46706e-09, No Iterations 4
smoothSolver:  Solving for Uy, Initial residual = 2.3445e-07, Final residual = 4.68819e-09, No Iterations 6
GAMG:  Solving for p, Initial residual = 9.77823e-07, Final residual = 9.77823e-07, No Iterations 0
time step continuity errors : sum local = 4.1245e-07, global = -7.93081e-17, cumulative = 6.14873e-14
smoothSolver:  Solving for nuTilda, Initial residual = 6.62303e-08, Final residual = 3.67887e-09, No Iterations 4
ExecutionTime = 409.66 s  ClockTime = 410 s

Time = 4989

smoothSolver:  Solving for Ux, Initial residual = 5.1975e-08, Final residual = 3.42775e-09, No Iterations 4
smoothSolver:  Solving for Uy, Initial residual = 2.30598e-07, Final residual = 4.6206e-09, No Iterations 6
GAMG:  Solving for p, Initial residual = 1.11591e-06, Final residual = 2.03428e-07, No Iterations 1
time step continuity errors : sum local = 8.58274e-08, global = -1.35475e-16, cumulative = 6.13518e-14
smoothSolver:  Solving for nuTilda, Initial residual = 6.94768e-08, Final residual = 3.62102e-09, No Iterations 4
ExecutionTime = 409.73 s  ClockTime = 410 s

Time = 4990

smoothSolver:  Solving for Ux, Initial residual = 5.31534e-08, Final residual = 3.53558e-09, No Iterations 4
smoothSolver:  Solving for Uy, Initial residual = 2.3994e-07, Final residual = 4.78539e-09, No Iterations 6
GAMG:  Solving for p, Initial residual = 1.0795e-06, Final residual = 1.56907e-07, No Iterations 1
time step continuity errors : sum local = 6.62595e-08, global = 2.92248e-16, cumulative = 6.16441e-14
smoothSolver:  Solving for nuTilda, Initial residual = 6.5124e-08, Final residual = 3.61608e-09, No Iterations 4
ExecutionTime = 409.8 s  ClockTime = 410 s

forces wings output:
    sum of forces:
        pressure : (9.2164 25.3219 -2.57236e-19)
        viscous  : (0.0854142 -0.0309642 1.01306e-20)
        porous   : (0 0 0)
    sum of moments:
        pressure : (-1.26609 0.46082 4.07828)
        viscous  : (0.00154821 0.00427071 -3.54838e-05)
        porous   : (0 0 0)

Time = 4991

smoothSolver:  Solving for Ux, Initial residual = 5.38284e-08, Final residual = 3.59764e-09, No Iterations 4
smoothSolver:  Solving for Uy, Initial residual = 2.46813e-07, Final residual = 4.86884e-09, No Iterations 6
GAMG:  Solving for p, Initial residual = 8.65963e-07, Final residual = 8.65963e-07, No Iterations 0
time step continuity errors : sum local = 3.6513e-07, global = 1.95488e-16, cumulative = 6.18396e-14
smoothSolver:  Solving for nuTilda, Initial residual = 6.86913e-08, Final residual = 3.56656e-09, No Iterations 4
ExecutionTime = 409.87 s  ClockTime = 410 s

Time = 4992

smoothSolver:  Solving for Ux, Initial residual = 5.30345e-08, Final residual = 3.51572e-09, No Iterations 4
smoothSolver:  Solving for Uy, Initial residual = 2.41965e-07, Final residual = 4.78983e-09, No Iterations 6
GAMG:  Solving for p, Initial residual = 1.05565e-06, Final residual = 1.65154e-07, No Iterations 1
time step continuity errors : sum local = 6.98636e-08, global = -1.32731e-16, cumulative = 6.17068e-14
smoothSolver:  Solving for nuTilda, Initial residual = 6.43321e-08, Final residual = 3.56061e-09, No Iterations 4
ExecutionTime = 409.94 s  ClockTime = 410 s

Time = 4993

smoothSolver:  Solving for Ux, Initial residual = 5.2043e-08, Final residual = 3.46373e-09, No Iterations 4
smoothSolver:  Solving for Uy, Initial residual = 2.30918e-07, Final residual = 4.62725e-09, No Iterations 6
GAMG:  Solving for p, Initial residual = 9.8072e-07, Final residual = 9.8072e-07, No Iterations 0
time step continuity errors : sum local = 4.13582e-07, global = -9.77259e-17, cumulative = 6.16091e-14
smoothSolver:  Solving for nuTilda, Initial residual = 6.79109e-08, Final residual = 3.51387e-09, No Iterations 4
ExecutionTime = 410 s  ClockTime = 410 s

Time = 4994

smoothSolver:  Solving for Ux, Initial residual = 5.12733e-08, Final residual = 3.39354e-09, No Iterations 4
smoothSolver:  Solving for Uy, Initial residual = 2.27511e-07, Final residual = 4.56211e-09, No Iterations 6
GAMG:  Solving for p, Initial residual = 9.45988e-07, Final residual = 9.45988e-07, No Iterations 0
time step continuity errors : sum local = 3.98937e-07, global = -1.63007e-17, cumulative = 6.15928e-14
smoothSolver:  Solving for nuTilda, Initial residual = 6.36949e-08, Final residual = 3.51609e-09, No Iterations 4
ExecutionTime = 410.07 s  ClockTime = 410 s

Time = 4995

smoothSolver:  Solving for Ux, Initial residual = 5.07267e-08, Final residual = 3.3584e-09, No Iterations 4
smoothSolver:  Solving for Uy, Initial residual = 2.2528e-07, Final residual = 4.51473e-09, No Iterations 6
GAMG:  Solving for p, Initial residual = 1.33191e-06, Final residual = 2.35448e-07, No Iterations 1
time step continuity errors : sum local = 9.95682e-08, global = -8.41186e-18, cumulative = 6.15844e-14
smoothSolver:  Solving for nuTilda, Initial residual = 6.68762e-08, Final residual = 3.45462e-09, No Iterations 4
ExecutionTime = 410.14 s  ClockTime = 410 s

forces wings output:
    sum of forces:
        pressure : (9.21648 25.3221 -2.57235e-19)
        viscous  : (0.0854165 -0.030965 1.01216e-20)
        porous   : (0 0 0)
    sum of moments:
        pressure : (-1.2661 0.460824 4.07834)
        viscous  : (0.00154825 0.00427083 -3.54917e-05)
        porous   : (0 0 0)

Time = 4996

smoothSolver:  Solving for Ux, Initial residual = 4.95129e-08, Final residual = 3.25275e-09, No Iterations 4
smoothSolver:  Solving for Uy, Initial residual = 2.27318e-07, Final residual = 4.60277e-09, No Iterations 6
GAMG:  Solving for p, Initial residual = 9.42841e-07, Final residual = 9.42841e-07, No Iterations 0
time step continuity errors : sum local = 3.97684e-07, global = 1.33634e-16, cumulative = 6.1718e-14
smoothSolver:  Solving for nuTilda, Initial residual = 6.28164e-08, Final residual = 3.4617e-09, No Iterations 4
ExecutionTime = 410.21 s  ClockTime = 410 s

Time = 4997

smoothSolver:  Solving for Ux, Initial residual = 4.90579e-08, Final residual = 3.22223e-09, No Iterations 4
smoothSolver:  Solving for Uy, Initial residual = 2.2438e-07, Final residual = 4.55703e-09, No Iterations 6
GAMG:  Solving for p, Initial residual = 1.06106e-06, Final residual = 1.85332e-07, No Iterations 1
time step continuity errors : sum local = 7.81854e-08, global = 2.70096e-16, cumulative = 6.19881e-14
smoothSolver:  Solving for nuTilda, Initial residual = 6.59618e-08, Final residual = 3.39588e-09, No Iterations 4
ExecutionTime = 410.28 s  ClockTime = 410 s

Time = 4998

smoothSolver:  Solving for Ux, Initial residual = 4.86545e-08, Final residual = 3.19071e-09, No Iterations 4
smoothSolver:  Solving for Uy, Initial residual = 2.33926e-07, Final residual = 4.73309e-09, No Iterations 6
GAMG:  Solving for p, Initial residual = 1.04214e-06, Final residual = 1.46261e-07, No Iterations 1
time step continuity errors : sum local = 6.17306e-08, global = -2.83823e-17, cumulative = 6.19598e-14
smoothSolver:  Solving for nuTilda, Initial residual = 6.16038e-08, Final residual = 3.38919e-09, No Iterations 4
ExecutionTime = 410.35 s  ClockTime = 411 s

Time = 4999

smoothSolver:  Solving for Ux, Initial residual = 4.8681e-08, Final residual = 3.20406e-09, No Iterations 4
smoothSolver:  Solving for Uy, Initial residual = 2.41594e-07, Final residual = 4.86668e-09, No Iterations 6
GAMG:  Solving for p, Initial residual = 8.14853e-07, Final residual = 8.14853e-07, No Iterations 0
time step continuity errors : sum local = 3.43604e-07, global = 6.87686e-17, cumulative = 6.20285e-14
smoothSolver:  Solving for nuTilda, Initial residual = 6.5048e-08, Final residual = 3.33671e-09, No Iterations 4
ExecutionTime = 410.42 s  ClockTime = 411 s

Time = 5000

smoothSolver:  Solving for Ux, Initial residual = 4.80821e-08, Final residual = 3.13709e-09, No Iterations 4
smoothSolver:  Solving for Uy, Initial residual = 2.37186e-07, Final residual = 4.7977e-09, No Iterations 6
GAMG:  Solving for p, Initial residual = 9.75683e-07, Final residual = 9.75683e-07, No Iterations 0
time step continuity errors : sum local = 4.11392e-07, global = -2.43566e-17, cumulative = 6.20042e-14
smoothSolver:  Solving for nuTilda, Initial residual = 6.06409e-08, Final residual = 3.32841e-09, No Iterations 4
ExecutionTime = 410.63 s  ClockTime = 411 s

forces wings output:
    sum of forces:
        pressure : (9.2165 25.3221 -2.57239e-19)
        viscous  : (0.0854146 -0.0309643 1.01304e-20)
        porous   : (0 0 0)
    sum of moments:
        pressure : (-1.26611 0.460825 4.07836)
        viscous  : (0.00154822 0.00427073 -3.54826e-05)
        porous   : (0 0 0)

End

