/*---------------------------------------------------------------------------*\
| =========                 |                                                 |
| \\      /  F ield         | OpenFOAM: The Open Source CFD Toolbox           |
|  \\    /   O peration     | Version:  2.3.0                                 |
|   \\  /    A nd           | Web:      www.OpenFOAM.org                      |
|    \\/     M anipulation  |                                                 |
\*---------------------------------------------------------------------------*/
Build  : 2.3.0-f5222ca19ce6
Exec   : simpleFoam -case Runs/first_flatplate_300_10/case
Date   : Jan 11 2015
Time   : 13:02:58
Host   : "lordvon-XPS-8300"
PID    : 6177
Case   : Runs/first_flatplate_300_10/case
nProcs : 1
sigFpe : Enabling floating point exception trapping (FOAM_SIGFPE).
fileModificationChecking : Monitoring run-time modified files using timeStampMaster
allowSystemOperations : Disallowing user-supplied system call operations

// * * * * * * * * * * * * * * * * * * * * * * * * * * * * * * * * * * * * * //
Create time

Create mesh for time = 0

Reading field p

Reading field U

Reading/calculating face flux field phi

Selecting incompressible transport model Newtonian
Selecting RAS turbulence model SpalartAllmaras
SpalartAllmarasCoeffs
{
    sigmaNut        0.66666;
    kappa           0.41;
    Cb1             0.1355;
    Cb2             0.622;
    Cw2             0.3;
    Cw3             2;
    Cv1             7.1;
    Cv2             5;
}

    Employing Ashford correction
No finite volume options present


SIMPLE: convergence criteria
    field p	 tolerance 1e-12
    field U	 tolerance 1e-12
    field nuTilda	 tolerance 1e-12


Starting time loop

forces wings:
    Not including porosity effects

Time = 1

smoothSolver:  Solving for Ux, Initial residual = 1, Final residual = 0.0059528, No Iterations 6
smoothSolver:  Solving for Uy, Initial residual = 1, Final residual = 0.00797908, No Iterations 4
GAMG:  Solving for p, Initial residual = 1, Final residual = 0.00907922, No Iterations 11
time step continuity errors : sum local = 0.000907672, global = 3.14773e-16, cumulative = 3.14773e-16
smoothSolver:  Solving for nuTilda, Initial residual = 1, Final residual = 0.00407056, No Iterations 4
ExecutionTime = 0.36 s  ClockTime = 1 s

Time = 2

smoothSolver:  Solving for Ux, Initial residual = 0.579245, Final residual = 0.00291931, No Iterations 8
smoothSolver:  Solving for Uy, Initial residual = 0.669842, Final residual = 0.0037071, No Iterations 8
GAMG:  Solving for p, Initial residual = 0.771744, Final residual = 0.00702489, No Iterations 6
time step continuity errors : sum local = 0.0015661, global = 1.602e-16, cumulative = 4.74973e-16
smoothSolver:  Solving for nuTilda, Initial residual = 0.185002, Final residual = 0.000750559, No Iterations 6
ExecutionTime = 0.45 s  ClockTime = 1 s

Time = 3

smoothSolver:  Solving for Ux, Initial residual = 0.233668, Final residual = 0.00115281, No Iterations 8
smoothSolver:  Solving for Uy, Initial residual = 0.243727, Final residual = 0.00133045, No Iterations 8
GAMG:  Solving for p, Initial residual = 0.590037, Final residual = 0.00570939, No Iterations 9
time step continuity errors : sum local = 0.00172853, global = 9.21382e-17, cumulative = 5.67111e-16
smoothSolver:  Solving for nuTilda, Initial residual = 0.0942006, Final residual = 0.000896288, No Iterations 6
ExecutionTime = 0.55 s  ClockTime = 1 s

Time = 4

smoothSolver:  Solving for Ux, Initial residual = 0.0850746, Final residual = 0.000327685, No Iterations 8
smoothSolver:  Solving for Uy, Initial residual = 0.0775829, Final residual = 0.00040281, No Iterations 8
GAMG:  Solving for p, Initial residual = 0.484465, Final residual = 0.00382818, No Iterations 8
time step continuity errors : sum local = 0.00112702, global = 6.7931e-17, cumulative = 6.35042e-16
smoothSolver:  Solving for nuTilda, Initial residual = 0.0713878, Final residual = 0.000214643, No Iterations 8
ExecutionTime = 0.65 s  ClockTime = 1 s

Time = 5

smoothSolver:  Solving for Ux, Initial residual = 0.211846, Final residual = 0.00104464, No Iterations 8
smoothSolver:  Solving for Uy, Initial residual = 0.234077, Final residual = 0.00125014, No Iterations 8
GAMG:  Solving for p, Initial residual = 0.440217, Final residual = 0.00315306, No Iterations 7
time step continuity errors : sum local = 0.000973513, global = 3.24812e-16, cumulative = 9.59854e-16
smoothSolver:  Solving for nuTilda, Initial residual = 0.0588046, Final residual = 0.000195248, No Iterations 8
ExecutionTime = 0.74 s  ClockTime = 1 s

forces wings output:
    sum of forces:
        pressure : (-220.97 -1253.18 -1.63197e-18)
        viscous  : (0.52384 -0.0642589 1.64768e-20)
        porous   : (0 0 0)
    sum of moments:
        pressure : (62.6592 -11.0485 -320.759)
        viscous  : (0.00321295 0.026192 0.00699239)
        porous   : (0 0 0)

Time = 6

smoothSolver:  Solving for Ux, Initial residual = 0.172274, Final residual = 0.000804028, No Iterations 8
smoothSolver:  Solving for Uy, Initial residual = 0.214952, Final residual = 0.00114064, No Iterations 8
GAMG:  Solving for p, Initial residual = 0.347748, Final residual = 0.00317137, No Iterations 9
time step continuity errors : sum local = 0.000987797, global = -7.68801e-18, cumulative = 9.52166e-16
smoothSolver:  Solving for nuTilda, Initial residual = 0.0489986, Final residual = 0.000169706, No Iterations 8
ExecutionTime = 0.85 s  ClockTime = 1 s

Time = 7

smoothSolver:  Solving for Ux, Initial residual = 0.126603, Final residual = 0.000522155, No Iterations 8
smoothSolver:  Solving for Uy, Initial residual = 0.177134, Final residual = 0.000915372, No Iterations 8
GAMG:  Solving for p, Initial residual = 0.259658, Final residual = 0.00210112, No Iterations 7
time step continuity errors : sum local = 0.000636889, global = 2.15258e-16, cumulative = 1.16742e-15
smoothSolver:  Solving for nuTilda, Initial residual = 0.0411261, Final residual = 0.000145779, No Iterations 8
ExecutionTime = 0.95 s  ClockTime = 1 s

Time = 8

smoothSolver:  Solving for Ux, Initial residual = 0.140755, Final residual = 0.000668854, No Iterations 8
smoothSolver:  Solving for Uy, Initial residual = 0.181383, Final residual = 0.00094994, No Iterations 8
GAMG:  Solving for p, Initial residual = 0.288894, Final residual = 0.0025242, No Iterations 7
time step continuity errors : sum local = 0.000803492, global = 8.89107e-17, cumulative = 1.25633e-15
smoothSolver:  Solving for nuTilda, Initial residual = 0.0347663, Final residual = 0.000125195, No Iterations 8
ExecutionTime = 1.04 s  ClockTime = 1 s

Time = 9

smoothSolver:  Solving for Ux, Initial residual = 0.0596807, Final residual = 0.000252637, No Iterations 8
smoothSolver:  Solving for Uy, Initial residual = 0.0483987, Final residual = 0.000249823, No Iterations 8
GAMG:  Solving for p, Initial residual = 0.225551, Final residual = 0.0022245, No Iterations 8
time step continuity errors : sum local = 0.00070399, global = -2.7516e-16, cumulative = 9.81175e-16
smoothSolver:  Solving for nuTilda, Initial residual = 0.0298097, Final residual = 0.000109323, No Iterations 8
ExecutionTime = 1.14 s  ClockTime = 1 s

Time = 10

smoothSolver:  Solving for Ux, Initial residual = 0.0613959, Final residual = 0.000262663, No Iterations 8
smoothSolver:  Solving for Uy, Initial residual = 0.0787598, Final residual = 0.000404221, No Iterations 8
GAMG:  Solving for p, Initial residual = 0.186332, Final residual = 0.00132877, No Iterations 5
time step continuity errors : sum local = 0.000406087, global = -8.2667e-17, cumulative = 8.98508e-16
smoothSolver:  Solving for nuTilda, Initial residual = 0.0259489, Final residual = 9.72566e-05, No Iterations 8
ExecutionTime = 1.22 s  ClockTime = 2 s

forces wings output:
    sum of forces:
        pressure : (-136.198 -772.419 -1.13695e-18)
        viscous  : (0.495963 -0.111574 2.23929e-20)
        porous   : (0 0 0)
    sum of moments:
        pressure : (38.621 -6.80991 -202.198)
        viscous  : (0.00557871 0.0247981 -0.00607717)
        porous   : (0 0 0)

Time = 11

smoothSolver:  Solving for Ux, Initial residual = 0.0733686, Final residual = 0.00033836, No Iterations 8
smoothSolver:  Solving for Uy, Initial residual = 0.107455, Final residual = 0.000551041, No Iterations 8
GAMG:  Solving for p, Initial residual = 0.200933, Final residual = 0.00187937, No Iterations 7
time step continuity errors : sum local = 0.000584455, global = 5.97497e-18, cumulative = 9.04483e-16
smoothSolver:  Solving for nuTilda, Initial residual = 0.0227774, Final residual = 8.74181e-05, No Iterations 8
ExecutionTime = 1.32 s  ClockTime = 2 s

Time = 12

smoothSolver:  Solving for Ux, Initial residual = 0.0360882, Final residual = 0.000131833, No Iterations 8
smoothSolver:  Solving for Uy, Initial residual = 0.0263009, Final residual = 0.000121981, No Iterations 8
GAMG:  Solving for p, Initial residual = 0.150427, Final residual = 0.00148358, No Iterations 7
time step continuity errors : sum local = 0.000444119, global = 1.11769e-16, cumulative = 1.01625e-15
smoothSolver:  Solving for nuTilda, Initial residual = 0.020187, Final residual = 7.90609e-05, No Iterations 8
ExecutionTime = 1.41 s  ClockTime = 2 s

Time = 13

smoothSolver:  Solving for Ux, Initial residual = 0.0508768, Final residual = 0.000211865, No Iterations 8
smoothSolver:  Solving for Uy, Initial residual = 0.0677896, Final residual = 0.000341074, No Iterations 8
GAMG:  Solving for p, Initial residual = 0.133223, Final residual = 0.000791865, No Iterations 6
time step continuity errors : sum local = 0.000233502, global = 1.8542e-16, cumulative = 1.20167e-15
smoothSolver:  Solving for nuTilda, Initial residual = 0.0179518, Final residual = 7.17352e-05, No Iterations 8
ExecutionTime = 1.5 s  ClockTime = 2 s

Time = 14

smoothSolver:  Solving for Ux, Initial residual = 0.0444992, Final residual = 0.000193551, No Iterations 8
smoothSolver:  Solving for Uy, Initial residual = 0.0505203, Final residual = 0.00025301, No Iterations 8
GAMG:  Solving for p, Initial residual = 0.141137, Final residual = 0.00139434, No Iterations 6
time step continuity errors : sum local = 0.000421982, global = -2.32639e-17, cumulative = 1.17841e-15
smoothSolver:  Solving for nuTilda, Initial residual = 0.0160525, Final residual = 6.55339e-05, No Iterations 8
ExecutionTime = 1.59 s  ClockTime = 2 s

Time = 15

smoothSolver:  Solving for Ux, Initial residual = 0.0246173, Final residual = 9.43153e-05, No Iterations 8
smoothSolver:  Solving for Uy, Initial residual = 0.0142671, Final residual = 6.41253e-05, No Iterations 8
GAMG:  Solving for p, Initial residual = 0.103364, Final residual = 0.000655062, No Iterations 7
time step continuity errors : sum local = 0.000194238, global = -3.80589e-17, cumulative = 1.14035e-15
smoothSolver:  Solving for nuTilda, Initial residual = 0.0144954, Final residual = 6.05298e-05, No Iterations 8
ExecutionTime = 1.69 s  ClockTime = 2 s

forces wings output:
    sum of forces:
        pressure : (-47.9267 -271.806 -5.23779e-19)
        viscous  : (0.482075 -0.104173 1.13978e-20)
        porous   : (0 0 0)
    sum of moments:
        pressure : (13.5903 -2.39633 -74.5248)
        viscous  : (0.00520867 0.0241038 -0.00495317)
        porous   : (0 0 0)

Time = 16

smoothSolver:  Solving for Ux, Initial residual = 0.0278777, Final residual = 0.000118685, No Iterations 8
smoothSolver:  Solving for Uy, Initial residual = 0.0395239, Final residual = 0.000194922, No Iterations 8
GAMG:  Solving for p, Initial residual = 0.099266, Final residual = 0.000734292, No Iterations 6
time step continuity errors : sum local = 0.000214805, global = -1.7824e-17, cumulative = 1.12252e-15
smoothSolver:  Solving for nuTilda, Initial residual = 0.0132339, Final residual = 5.64804e-05, No Iterations 8
ExecutionTime = 1.78 s  ClockTime = 2 s

Time = 17

smoothSolver:  Solving for Ux, Initial residual = 0.0213443, Final residual = 8.84191e-05, No Iterations 8
smoothSolver:  Solving for Uy, Initial residual = 0.029837, Final residual = 0.000144854, No Iterations 8
GAMG:  Solving for p, Initial residual = 0.0974353, Final residual = 0.000923583, No Iterations 6
time step continuity errors : sum local = 0.000276174, global = -1.64595e-17, cumulative = 1.10607e-15
smoothSolver:  Solving for nuTilda, Initial residual = 0.0121464, Final residual = 5.3006e-05, No Iterations 8
ExecutionTime = 1.87 s  ClockTime = 2 s

Time = 18

smoothSolver:  Solving for Ux, Initial residual = 0.0156315, Final residual = 5.50534e-05, No Iterations 8
smoothSolver:  Solving for Uy, Initial residual = 0.0155835, Final residual = 7.15662e-05, No Iterations 8
GAMG:  Solving for p, Initial residual = 0.070061, Final residual = 0.000543515, No Iterations 6
time step continuity errors : sum local = 0.000159457, global = 1.1822e-16, cumulative = 1.22428e-15
smoothSolver:  Solving for nuTilda, Initial residual = 0.0111823, Final residual = 4.98529e-05, No Iterations 8
ExecutionTime = 1.96 s  ClockTime = 2 s

Time = 19

smoothSolver:  Solving for Ux, Initial residual = 0.0201997, Final residual = 8.24257e-05, No Iterations 8
smoothSolver:  Solving for Uy, Initial residual = 0.0246671, Final residual = 0.000119433, No Iterations 8
GAMG:  Solving for p, Initial residual = 0.0708106, Final residual = 0.000474106, No Iterations 6
time step continuity errors : sum local = 0.000138009, global = -4.05732e-17, cumulative = 1.18371e-15
smoothSolver:  Solving for nuTilda, Initial residual = 0.0103203, Final residual = 4.68812e-05, No Iterations 8
ExecutionTime = 2.05 s  ClockTime = 2 s

Time = 20

smoothSolver:  Solving for Ux, Initial residual = 0.0153884, Final residual = 6.3665e-05, No Iterations 8
smoothSolver:  Solving for Uy, Initial residual = 0.0127558, Final residual = 6.08496e-05, No Iterations 8
GAMG:  Solving for p, Initial residual = 0.0663336, Final residual = 0.000562264, No Iterations 6
time step continuity errors : sum local = 0.000166754, global = 8.01342e-17, cumulative = 1.26385e-15
smoothSolver:  Solving for nuTilda, Initial residual = 0.00957475, Final residual = 4.41689e-05, No Iterations 8
ExecutionTime = 2.14 s  ClockTime = 2 s

forces wings output:
    sum of forces:
        pressure : (-6.67869 -37.8767 -1.84153e-19)
        viscous  : (0.46924 -0.090602 2.4628e-21)
        porous   : (0 0 0)
    sum of moments:
        pressure : (1.89383 -0.333934 -13.3932)
        viscous  : (0.0045301 0.023462 -0.00212106)
        porous   : (0 0 0)

Time = 21

smoothSolver:  Solving for Ux, Initial residual = 0.0128177, Final residual = 5.37297e-05, No Iterations 8
smoothSolver:  Solving for Uy, Initial residual = 0.0106148, Final residual = 4.90492e-05, No Iterations 8
GAMG:  Solving for p, Initial residual = 0.0486796, Final residual = 0.000333316, No Iterations 5
time step continuity errors : sum local = 9.7544e-05, global = -1.10179e-16, cumulative = 1.15367e-15
smoothSolver:  Solving for nuTilda, Initial residual = 0.0089408, Final residual = 4.17798e-05, No Iterations 8
ExecutionTime = 2.23 s  ClockTime = 3 s

Time = 22

smoothSolver:  Solving for Ux, Initial residual = 0.0112779, Final residual = 4.90531e-05, No Iterations 8
smoothSolver:  Solving for Uy, Initial residual = 0.015433, Final residual = 7.36296e-05, No Iterations 8
GAMG:  Solving for p, Initial residual = 0.0492666, Final residual = 0.000310889, No Iterations 6
time step continuity errors : sum local = 9.12487e-05, global = 1.83432e-16, cumulative = 1.3371e-15
smoothSolver:  Solving for nuTilda, Initial residual = 0.00840129, Final residual = 3.96677e-05, No Iterations 8
ExecutionTime = 2.32 s  ClockTime = 3 s

Time = 23

smoothSolver:  Solving for Ux, Initial residual = 0.00753966, Final residual = 2.95028e-05, No Iterations 8
smoothSolver:  Solving for Uy, Initial residual = 0.00764717, Final residual = 3.53878e-05, No Iterations 8
GAMG:  Solving for p, Initial residual = 0.0444761, Final residual = 0.000421581, No Iterations 5
time step continuity errors : sum local = 0.000123497, global = -5.26479e-17, cumulative = 1.28445e-15
smoothSolver:  Solving for nuTilda, Initial residual = 0.00793791, Final residual = 3.77353e-05, No Iterations 8
ExecutionTime = 2.41 s  ClockTime = 3 s

Time = 24

smoothSolver:  Solving for Ux, Initial residual = 0.00841144, Final residual = 3.14689e-05, No Iterations 8
smoothSolver:  Solving for Uy, Initial residual = 0.00866152, Final residual = 4.03765e-05, No Iterations 8
GAMG:  Solving for p, Initial residual = 0.0326638, Final residual = 0.000299428, No Iterations 5
time step continuity errors : sum local = 8.73656e-05, global = 1.17668e-16, cumulative = 1.40212e-15
smoothSolver:  Solving for nuTilda, Initial residual = 0.00751942, Final residual = 3.59025e-05, No Iterations 8
ExecutionTime = 2.49 s  ClockTime = 3 s

Time = 25

smoothSolver:  Solving for Ux, Initial residual = 0.00936871, Final residual = 3.75201e-05, No Iterations 8
smoothSolver:  Solving for Uy, Initial residual = 0.0087338, Final residual = 4.10212e-05, No Iterations 8
GAMG:  Solving for p, Initial residual = 0.0319158, Final residual = 0.000216037, No Iterations 6
time step continuity errors : sum local = 6.32289e-05, global = -1.11596e-17, cumulative = 1.39096e-15
smoothSolver:  Solving for nuTilda, Initial residual = 0.00713829, Final residual = 3.41722e-05, No Iterations 8
ExecutionTime = 2.58 s  ClockTime = 3 s

forces wings output:
    sum of forces:
        pressure : (4.66847 26.4762 -1.27796e-19)
        viscous  : (0.455873 -0.0821749 -4.65518e-22)
        porous   : (0 0 0)
    sum of moments:
        pressure : (-1.32381 0.233423 3.80169)
        viscous  : (0.00410874 0.0227937 -0.000583105)
        porous   : (0 0 0)

Time = 26

smoothSolver:  Solving for Ux, Initial residual = 0.00793459, Final residual = 3.24372e-05, No Iterations 8
smoothSolver:  Solving for Uy, Initial residual = 0.00405854, Final residual = 1.86203e-05, No Iterations 8
GAMG:  Solving for p, Initial residual = 0.0299077, Final residual = 0.000206052, No Iterations 5
time step continuity errors : sum local = 6.06149e-05, global = 3.40108e-16, cumulative = 1.73107e-15
smoothSolver:  Solving for nuTilda, Initial residual = 0.00678502, Final residual = 3.25544e-05, No Iterations 8
ExecutionTime = 2.67 s  ClockTime = 3 s

Time = 27

smoothSolver:  Solving for Ux, Initial residual = 0.0073549, Final residual = 3.11501e-05, No Iterations 8
smoothSolver:  Solving for Uy, Initial residual = 0.00580734, Final residual = 2.71497e-05, No Iterations 8
GAMG:  Solving for p, Initial residual = 0.0232541, Final residual = 8.79256e-05, No Iterations 6
time step continuity errors : sum local = 2.58092e-05, global = -1.80209e-16, cumulative = 1.55086e-15
smoothSolver:  Solving for nuTilda, Initial residual = 0.00647301, Final residual = 3.10897e-05, No Iterations 8
ExecutionTime = 2.76 s  ClockTime = 3 s

Time = 28

smoothSolver:  Solving for Ux, Initial residual = 0.00592237, Final residual = 2.51934e-05, No Iterations 8
smoothSolver:  Solving for Uy, Initial residual = 0.00584209, Final residual = 2.75303e-05, No Iterations 8
GAMG:  Solving for p, Initial residual = 0.0209185, Final residual = 0.00012404, No Iterations 6
time step continuity errors : sum local = 3.65474e-05, global = 1.30548e-19, cumulative = 1.55099e-15
smoothSolver:  Solving for nuTilda, Initial residual = 0.0061889, Final residual = 2.97348e-05, No Iterations 8
ExecutionTime = 2.85 s  ClockTime = 3 s

Time = 29

smoothSolver:  Solving for Ux, Initial residual = 0.00514722, Final residual = 2.0958e-05, No Iterations 8
smoothSolver:  Solving for Uy, Initial residual = 0.00381687, Final residual = 1.7634e-05, No Iterations 8
GAMG:  Solving for p, Initial residual = 0.0197121, Final residual = 0.000120871, No Iterations 5
time step continuity errors : sum local = 3.54948e-05, global = -8.29691e-19, cumulative = 1.55016e-15
smoothSolver:  Solving for nuTilda, Initial residual = 0.00593327, Final residual = 2.85021e-05, No Iterations 8
bounding nuTilda, min: -5.64404e-05 max: 0.404241 average: 0.0863896
ExecutionTime = 2.94 s  ClockTime = 3 s

Time = 30

smoothSolver:  Solving for Ux, Initial residual = 0.00563253, Final residual = 2.25591e-05, No Iterations 8
smoothSolver:  Solving for Uy, Initial residual = 0.00431533, Final residual = 2.05081e-05, No Iterations 8
GAMG:  Solving for p, Initial residual = 0.0166984, Final residual = 0.000163125, No Iterations 5
time step continuity errors : sum local = 4.77814e-05, global = 6.56433e-17, cumulative = 1.6158e-15
smoothSolver:  Solving for nuTilda, Initial residual = 0.00568331, Final residual = 2.72995e-05, No Iterations 8
ExecutionTime = 3.03 s  ClockTime = 3 s

forces wings output:
    sum of forces:
        pressure : (4.86641 27.5988 -1.41747e-19)
        viscous  : (0.442185 -0.0777526 -4.20262e-22)
        porous   : (0 0 0)
    sum of moments:
        pressure : (-1.37994 0.243321 3.95807)
        viscous  : (0.00388763 0.0221093 -7.93575e-05)
        porous   : (0 0 0)

Time = 31

smoothSolver:  Solving for Ux, Initial residual = 0.00570488, Final residual = 2.29326e-05, No Iterations 8
smoothSolver:  Solving for Uy, Initial residual = 0.00326647, Final residual = 1.57788e-05, No Iterations 8
GAMG:  Solving for p, Initial residual = 0.013909, Final residual = 0.000103938, No Iterations 6
time step continuity errors : sum local = 3.07268e-05, global = -5.07157e-18, cumulative = 1.61073e-15
smoothSolver:  Solving for nuTilda, Initial residual = 0.00545145, Final residual = 2.6186e-05, No Iterations 8
ExecutionTime = 3.12 s  ClockTime = 3 s

Time = 32

smoothSolver:  Solving for Ux, Initial residual = 0.00556467, Final residual = 2.29831e-05, No Iterations 8
smoothSolver:  Solving for Uy, Initial residual = 0.00253315, Final residual = 1.22102e-05, No Iterations 8
GAMG:  Solving for p, Initial residual = 0.0129786, Final residual = 9.13582e-05, No Iterations 5
time step continuity errors : sum local = 2.7169e-05, global = -7.22917e-17, cumulative = 1.53844e-15
smoothSolver:  Solving for nuTilda, Initial residual = 0.00522699, Final residual = 2.511e-05, No Iterations 8
bounding nuTilda, min: -7.39716e-05 max: 0.404532 average: 0.0838916
ExecutionTime = 3.21 s  ClockTime = 4 s

Time = 33

smoothSolver:  Solving for Ux, Initial residual = 0.00515911, Final residual = 2.17523e-05, No Iterations 8
smoothSolver:  Solving for Uy, Initial residual = 0.00303715, Final residual = 1.47955e-05, No Iterations 8
GAMG:  Solving for p, Initial residual = 0.0118978, Final residual = 0.000105549, No Iterations 5
time step continuity errors : sum local = 3.10983e-05, global = -1.3164e-16, cumulative = 1.4068e-15
smoothSolver:  Solving for nuTilda, Initial residual = 0.00502307, Final residual = 2.41415e-05, No Iterations 8
ExecutionTime = 3.3 s  ClockTime = 4 s

Time = 34

smoothSolver:  Solving for Ux, Initial residual = 0.00467681, Final residual = 1.98436e-05, No Iterations 8
smoothSolver:  Solving for Uy, Initial residual = 0.00259188, Final residual = 1.2931e-05, No Iterations 8
GAMG:  Solving for p, Initial residual = 0.00978275, Final residual = 7.78193e-05, No Iterations 5
time step continuity errors : sum local = 2.29235e-05, global = -9.02122e-17, cumulative = 1.31659e-15
smoothSolver:  Solving for nuTilda, Initial residual = 0.0048287, Final residual = 2.32038e-05, No Iterations 8
ExecutionTime = 3.38 s  ClockTime = 4 s

Time = 35

smoothSolver:  Solving for Ux, Initial residual = 0.00444264, Final residual = 1.86371e-05, No Iterations 8
smoothSolver:  Solving for Uy, Initial residual = 0.00248198, Final residual = 1.22792e-05, No Iterations 8
GAMG:  Solving for p, Initial residual = 0.008742, Final residual = 6.48911e-05, No Iterations 6
time step continuity errors : sum local = 1.92496e-05, global = 3.35115e-16, cumulative = 1.6517e-15
smoothSolver:  Solving for nuTilda, Initial residual = 0.00465126, Final residual = 2.23612e-05, No Iterations 8
bounding nuTilda, min: -0.000170422 max: 0.404658 average: 0.0815724
ExecutionTime = 3.47 s  ClockTime = 4 s

forces wings output:
    sum of forces:
        pressure : (3.55082 20.1377 -1.72933e-19)
        viscous  : (0.428118 -0.0749498 -1.62112e-22)
        porous   : (0 0 0)
    sum of moments:
        pressure : (-1.00689 0.177541 1.7137)
        viscous  : (0.00374749 0.0214059 -1.12855e-05)
        porous   : (0 0 0)

Time = 36

smoothSolver:  Solving for Ux, Initial residual = 0.00449838, Final residual = 1.88211e-05, No Iterations 8
smoothSolver:  Solving for Uy, Initial residual = 0.00230041, Final residual = 1.15869e-05, No Iterations 8
GAMG:  Solving for p, Initial residual = 0.00844891, Final residual = 7.1064e-05, No Iterations 5
time step continuity errors : sum local = 2.0928e-05, global = 2.20288e-16, cumulative = 1.87199e-15
smoothSolver:  Solving for nuTilda, Initial residual = 0.0044784, Final residual = 2.15254e-05, No Iterations 8
bounding nuTilda, min: -5.21435e-05 max: 0.404669 average: 0.0808336
ExecutionTime = 3.57 s  ClockTime = 4 s

Time = 37

smoothSolver:  Solving for Ux, Initial residual = 0.00454407, Final residual = 1.91381e-05, No Iterations 8
smoothSolver:  Solving for Uy, Initial residual = 0.00176934, Final residual = 9.32326e-06, No Iterations 8
GAMG:  Solving for p, Initial residual = 0.00706836, Final residual = 5.31024e-05, No Iterations 5
time step continuity errors : sum local = 1.57241e-05, global = -5.30663e-17, cumulative = 1.81892e-15
smoothSolver:  Solving for nuTilda, Initial residual = 0.00432095, Final residual = 2.07635e-05, No Iterations 8
bounding nuTilda, min: -6.4262e-06 max: 0.404673 average: 0.0801134
ExecutionTime = 3.65 s  ClockTime = 4 s

Time = 38

smoothSolver:  Solving for Ux, Initial residual = 0.00445124, Final residual = 1.89304e-05, No Iterations 8
smoothSolver:  Solving for Uy, Initial residual = 0.00180102, Final residual = 9.4513e-06, No Iterations 8
GAMG:  Solving for p, Initial residual = 0.00627903, Final residual = 2.65865e-05, No Iterations 5
time step continuity errors : sum local = 7.8414e-06, global = 1.417e-16, cumulative = 1.96062e-15
smoothSolver:  Solving for nuTilda, Initial residual = 0.00416869, Final residual = 2.00104e-05, No Iterations 8
ExecutionTime = 3.74 s  ClockTime = 4 s

Time = 39

smoothSolver:  Solving for Ux, Initial residual = 0.00424175, Final residual = 1.81515e-05, No Iterations 8
smoothSolver:  Solving for Uy, Initial residual = 0.0018627, Final residual = 9.84053e-06, No Iterations 8
GAMG:  Solving for p, Initial residual = 0.00611683, Final residual = 4.08356e-05, No Iterations 5
time step continuity errors : sum local = 1.19371e-05, global = 1.36882e-16, cumulative = 2.09751e-15
smoothSolver:  Solving for nuTilda, Initial residual = 0.00402762, Final residual = 1.93326e-05, No Iterations 8
bounding nuTilda, min: -3.27014e-05 max: 0.404676 average: 0.0787185
ExecutionTime = 3.83 s  ClockTime = 4 s

Time = 40

smoothSolver:  Solving for Ux, Initial residual = 0.00405646, Final residual = 1.73811e-05, No Iterations 8
smoothSolver:  Solving for Uy, Initial residual = 0.0017482, Final residual = 9.37512e-06, No Iterations 8
GAMG:  Solving for p, Initial residual = 0.00550226, Final residual = 4.88284e-05, No Iterations 4
time step continuity errors : sum local = 1.43921e-05, global = -3.02864e-16, cumulative = 1.79464e-15
smoothSolver:  Solving for nuTilda, Initial residual = 0.00389024, Final residual = 1.86621e-05, No Iterations 8
bounding nuTilda, min: -7.52973e-05 max: 0.404678 average: 0.0780428
ExecutionTime = 3.92 s  ClockTime = 4 s

forces wings output:
    sum of forces:
        pressure : (2.91447 16.5288 -1.88546e-19)
        viscous  : (0.414712 -0.0726637 2.06305e-22)
        porous   : (0 0 0)
    sum of moments:
        pressure : (-0.826439 0.145723 0.581264)
        viscous  : (0.00363318 0.0207356 -4.10317e-05)
        porous   : (0 0 0)

Time = 41

smoothSolver:  Solving for Ux, Initial residual = 0.00396575, Final residual = 1.69836e-05, No Iterations 8
smoothSolver:  Solving for Uy, Initial residual = 0.00176263, Final residual = 9.44733e-06, No Iterations 8
GAMG:  Solving for p, Initial residual = 0.00512746, Final residual = 4.73189e-05, No Iterations 4
time step continuity errors : sum local = 1.39194e-05, global = -2.01115e-16, cumulative = 1.59353e-15
smoothSolver:  Solving for nuTilda, Initial residual = 0.00376322, Final residual = 1.80436e-05, No Iterations 8
bounding nuTilda, min: -4.97078e-05 max: 0.404679 average: 0.0773828
ExecutionTime = 4.01 s  ClockTime = 4 s

Time = 42

smoothSolver:  Solving for Ux, Initial residual = 0.00394562, Final residual = 1.69252e-05, No Iterations 8
smoothSolver:  Solving for Uy, Initial residual = 0.00158127, Final residual = 8.69046e-06, No Iterations 8
GAMG:  Solving for p, Initial residual = 0.00490722, Final residual = 3.48178e-05, No Iterations 5
time step continuity errors : sum local = 1.0263e-05, global = 1.63408e-16, cumulative = 1.75694e-15
smoothSolver:  Solving for nuTilda, Initial residual = 0.00363991, Final residual = 1.74371e-05, No Iterations 8
ExecutionTime = 4.09 s  ClockTime = 4 s

Time = 43

smoothSolver:  Solving for Ux, Initial residual = 0.00392149, Final residual = 1.69023e-05, No Iterations 8
smoothSolver:  Solving for Uy, Initial residual = 0.00147881, Final residual = 8.24745e-06, No Iterations 8
GAMG:  Solving for p, Initial residual = 0.00446649, Final residual = 3.45554e-05, No Iterations 4
time step continuity errors : sum local = 1.01628e-05, global = -1.14597e-16, cumulative = 1.64234e-15
smoothSolver:  Solving for nuTilda, Initial residual = 0.0035252, Final residual = 1.68685e-05, No Iterations 8
bounding nuTilda, min: -6.32083e-05 max: 0.40468 average: 0.0761022
ExecutionTime = 4.18 s  ClockTime = 5 s

Time = 44

smoothSolver:  Solving for Ux, Initial residual = 0.00384423, Final residual = 1.66598e-05, No Iterations 8
smoothSolver:  Solving for Uy, Initial residual = 0.00147919, Final residual = 8.28124e-06, No Iterations 8
GAMG:  Solving for p, Initial residual = 0.00425348, Final residual = 3.12452e-05, No Iterations 4
time step continuity errors : sum local = 9.20895e-06, global = -9.82647e-18, cumulative = 1.63251e-15
smoothSolver:  Solving for nuTilda, Initial residual = 0.00341435, Final residual = 1.63163e-05, No Iterations 8
bounding nuTilda, min: -3.87056e-05 max: 0.404679 average: 0.0754812
ExecutionTime = 4.26 s  ClockTime = 5 s

Time = 45

smoothSolver:  Solving for Ux, Initial residual = 0.00373546, Final residual = 1.62438e-05, No Iterations 8
smoothSolver:  Solving for Uy, Initial residual = 0.00146212, Final residual = 8.25929e-06, No Iterations 8
GAMG:  Solving for p, Initial residual = 0.00409889, Final residual = 3.06955e-05, No Iterations 4
time step continuity errors : sum local = 9.04874e-06, global = 1.12032e-16, cumulative = 1.74454e-15
smoothSolver:  Solving for nuTilda, Initial residual = 0.00331001, Final residual = 1.58024e-05, No Iterations 8
bounding nuTilda, min: -7.37681e-05 max: 0.404678 average: 0.0748733
ExecutionTime = 4.35 s  ClockTime = 5 s

forces wings output:
    sum of forces:
        pressure : (2.84098 16.112 -1.94678e-19)
        viscous  : (0.401116 -0.0703596 1.67854e-22)
        porous   : (0 0 0)
    sum of moments:
        pressure : (-0.805602 0.142049 0.403901)
        viscous  : (0.00351798 0.0200558 -7.16268e-05)
        porous   : (0 0 0)

Time = 46

smoothSolver:  Solving for Ux, Initial residual = 0.00363313, Final residual = 1.58193e-05, No Iterations 8
smoothSolver:  Solving for Uy, Initial residual = 0.00148278, Final residual = 8.37651e-06, No Iterations 8
GAMG:  Solving for p, Initial residual = 0.00386341, Final residual = 2.97098e-05, No Iterations 4
time step continuity errors : sum local = 8.75285e-06, global = 1.45998e-16, cumulative = 1.89054e-15
smoothSolver:  Solving for nuTilda, Initial residual = 0.00320989, Final residual = 1.53071e-05, No Iterations 8
ExecutionTime = 4.43 s  ClockTime = 5 s

Time = 47

smoothSolver:  Solving for Ux, Initial residual = 0.0035604, Final residual = 1.55164e-05, No Iterations 8
smoothSolver:  Solving for Uy, Initial residual = 0.00146575, Final residual = 8.32158e-06, No Iterations 8
GAMG:  Solving for p, Initial residual = 0.00372417, Final residual = 2.84653e-05, No Iterations 4
time step continuity errors : sum local = 8.36578e-06, global = 3.08594e-16, cumulative = 2.19914e-15
smoothSolver:  Solving for nuTilda, Initial residual = 0.00311426, Final residual = 1.48393e-05, No Iterations 8
bounding nuTilda, min: -8.11416e-05 max: 0.404676 average: 0.0736925
ExecutionTime = 4.52 s  ClockTime = 5 s

Time = 48

smoothSolver:  Solving for Ux, Initial residual = 0.00351729, Final residual = 1.5365e-05, No Iterations 8
smoothSolver:  Solving for Uy, Initial residual = 0.0014138, Final residual = 8.10908e-06, No Iterations 8
GAMG:  Solving for p, Initial residual = 0.00357221, Final residual = 2.33264e-05, No Iterations 4
time step continuity errors : sum local = 6.85626e-06, global = -1.4374e-16, cumulative = 2.0554e-15
smoothSolver:  Solving for nuTilda, Initial residual = 0.00302228, Final residual = 1.43891e-05, No Iterations 8
ExecutionTime = 4.6 s  ClockTime = 5 s

Time = 49

smoothSolver:  Solving for Ux, Initial residual = 0.00347403, Final residual = 1.52275e-05, No Iterations 8
smoothSolver:  Solving for Uy, Initial residual = 0.00137946, Final residual = 7.95996e-06, No Iterations 8
GAMG:  Solving for p, Initial residual = 0.00341737, Final residual = 2.02095e-05, No Iterations 4
time step continuity errors : sum local = 5.91724e-06, global = -7.36142e-17, cumulative = 1.98178e-15
smoothSolver:  Solving for nuTilda, Initial residual = 0.00293465, Final residual = 1.39618e-05, No Iterations 8
bounding nuTilda, min: -8.57541e-05 max: 0.404675 average: 0.0725569
ExecutionTime = 4.7 s  ClockTime = 5 s

Time = 50

smoothSolver:  Solving for Ux, Initial residual = 0.00341681, Final residual = 1.50279e-05, No Iterations 8
smoothSolver:  Solving for Uy, Initial residual = 0.00135962, Final residual = 7.89714e-06, No Iterations 8
GAMG:  Solving for p, Initial residual = 0.00332491, Final residual = 2.01852e-05, No Iterations 4
time step continuity errors : sum local = 5.92978e-06, global = 1.66964e-16, cumulative = 2.14875e-15
smoothSolver:  Solving for nuTilda, Initial residual = 0.0028499, Final residual = 1.35509e-05, No Iterations 8
ExecutionTime = 4.78 s  ClockTime = 5 s

forces wings output:
    sum of forces:
        pressure : (2.96747 16.8294 -2.0052e-19)
        viscous  : (0.388132 -0.0681058 1.77583e-22)
        porous   : (0 0 0)
    sum of moments:
        pressure : (-0.84147 0.148374 0.54633)
        viscous  : (0.00340529 0.0194066 -8.3546e-05)
        porous   : (0 0 0)

Time = 51

smoothSolver:  Solving for Ux, Initial residual = 0.00335161, Final residual = 1.4774e-05, No Iterations 8
smoothSolver:  Solving for Uy, Initial residual = 0.00136015, Final residual = 7.93226e-06, No Iterations 8
GAMG:  Solving for p, Initial residual = 0.00324207, Final residual = 1.31954e-05, No Iterations 4
time step continuity errors : sum local = 3.8868e-06, global = -1.68344e-17, cumulative = 2.13191e-15
smoothSolver:  Solving for nuTilda, Initial residual = 0.00276888, Final residual = 1.31588e-05, No Iterations 8
bounding nuTilda, min: -8.78778e-05 max: 0.404672 average: 0.0714637
ExecutionTime = 4.87 s  ClockTime = 5 s

Time = 52

smoothSolver:  Solving for Ux, Initial residual = 0.00328893, Final residual = 1.45206e-05, No Iterations 8
smoothSolver:  Solving for Uy, Initial residual = 0.00136074, Final residual = 7.96454e-06, No Iterations 8
GAMG:  Solving for p, Initial residual = 0.00316884, Final residual = 1.55898e-05, No Iterations 4
time step continuity errors : sum local = 4.5701e-06, global = -7.63949e-17, cumulative = 2.05552e-15
smoothSolver:  Solving for nuTilda, Initial residual = 0.00269142, Final residual = 1.2782e-05, No Iterations 8
ExecutionTime = 4.95 s  ClockTime = 5 s

Time = 53

smoothSolver:  Solving for Ux, Initial residual = 0.00323394, Final residual = 1.42971e-05, No Iterations 8
smoothSolver:  Solving for Uy, Initial residual = 0.0013486, Final residual = 7.93483e-06, No Iterations 8
GAMG:  Solving for p, Initial residual = 0.0031035, Final residual = 1.56507e-05, No Iterations 4
time step continuity errors : sum local = 4.59026e-06, global = 1.36971e-16, cumulative = 2.19249e-15
smoothSolver:  Solving for nuTilda, Initial residual = 0.00261694, Final residual = 1.24217e-05, No Iterations 8
bounding nuTilda, min: -8.76119e-05 max: 0.404667 average: 0.0704105
ExecutionTime = 5.04 s  ClockTime = 5 s

Time = 54

smoothSolver:  Solving for Ux, Initial residual = 0.00318687, Final residual = 1.4114e-05, No Iterations 8
smoothSolver:  Solving for Uy, Initial residual = 0.00133249, Final residual = 7.87683e-06, No Iterations 8
GAMG:  Solving for p, Initial residual = 0.00302616, Final residual = 1.69789e-05, No Iterations 4
time step continuity errors : sum local = 4.97724e-06, global = 9.0234e-17, cumulative = 2.28272e-15
smoothSolver:  Solving for nuTilda, Initial residual = 0.00254591, Final residual = 1.20763e-05, No Iterations 8
ExecutionTime = 5.12 s  ClockTime = 5 s

Time = 55

smoothSolver:  Solving for Ux, Initial residual = 0.00314397, Final residual = 1.39533e-05, No Iterations 8
smoothSolver:  Solving for Uy, Initial residual = 0.00131845, Final residual = 7.82114e-06, No Iterations 8
GAMG:  Solving for p, Initial residual = 0.00297325, Final residual = 1.8669e-05, No Iterations 4
time step continuity errors : sum local = 5.46065e-06, global = -1.48703e-16, cumulative = 2.13402e-15
smoothSolver:  Solving for nuTilda, Initial residual = 0.00247905, Final residual = 1.17467e-05, No Iterations 8
bounding nuTilda, min: -8.49453e-05 max: 0.404663 average: 0.069395
ExecutionTime = 5.21 s  ClockTime = 6 s

forces wings output:
    sum of forces:
        pressure : (3.04727 17.2819 -2.03869e-19)
        viscous  : (0.375435 -0.065879 1.29493e-22)
        porous   : (0 0 0)
    sum of moments:
        pressure : (-0.864097 0.152363 0.571291)
        viscous  : (0.00329395 0.0187718 -8.64209e-05)
        porous   : (0 0 0)

Time = 56

smoothSolver:  Solving for Ux, Initial residual = 0.00310081, Final residual = 1.37918e-05, No Iterations 8
smoothSolver:  Solving for Uy, Initial residual = 0.00130745, Final residual = 7.78354e-06, No Iterations 8
GAMG:  Solving for p, Initial residual = 0.0029269, Final residual = 1.71197e-05, No Iterations 4
time step continuity errors : sum local = 5.00546e-06, global = -3.66542e-17, cumulative = 2.09736e-15
smoothSolver:  Solving for nuTilda, Initial residual = 0.00241527, Final residual = 1.14336e-05, No Iterations 8
ExecutionTime = 5.3 s  ClockTime = 6 s

Time = 57

smoothSolver:  Solving for Ux, Initial residual = 0.00305737, Final residual = 1.36206e-05, No Iterations 8
smoothSolver:  Solving for Uy, Initial residual = 0.00130044, Final residual = 7.76425e-06, No Iterations 8
GAMG:  Solving for p, Initial residual = 0.00286446, Final residual = 1.44269e-05, No Iterations 4
time step continuity errors : sum local = 4.21801e-06, global = 1.0003e-16, cumulative = 2.19739e-15
smoothSolver:  Solving for nuTilda, Initial residual = 0.00235371, Final residual = 1.11287e-05, No Iterations 8
bounding nuTilda, min: -8.04706e-05 max: 0.404659 average: 0.0684149
ExecutionTime = 5.38 s  ClockTime = 6 s

Time = 58

smoothSolver:  Solving for Ux, Initial residual = 0.00301293, Final residual = 1.34401e-05, No Iterations 8
smoothSolver:  Solving for Uy, Initial residual = 0.00129395, Final residual = 7.74536e-06, No Iterations 8
GAMG:  Solving for p, Initial residual = 0.0028129, Final residual = 1.2408e-05, No Iterations 4
time step continuity errors : sum local = 3.63738e-06, global = 1.11339e-16, cumulative = 2.30873e-15
smoothSolver:  Solving for nuTilda, Initial residual = 0.00229349, Final residual = 1.08328e-05, No Iterations 8
ExecutionTime = 5.46 s  ClockTime = 6 s

Time = 59

smoothSolver:  Solving for Ux, Initial residual = 0.00297119, Final residual = 1.32686e-05, No Iterations 8
smoothSolver:  Solving for Uy, Initial residual = 0.0012835, Final residual = 7.711e-06, No Iterations 8
GAMG:  Solving for p, Initial residual = 0.00275014, Final residual = 1.17839e-05, No Iterations 4
time step continuity errors : sum local = 3.45217e-06, global = 1.63326e-16, cumulative = 2.47206e-15
smoothSolver:  Solving for nuTilda, Initial residual = 0.00223548, Final residual = 1.05464e-05, No Iterations 8
bounding nuTilda, min: -7.40951e-05 max: 0.404656 average: 0.0674684
ExecutionTime = 5.55 s  ClockTime = 6 s

Time = 60

smoothSolver:  Solving for Ux, Initial residual = 0.00292961, Final residual = 1.3096e-05, No Iterations 8
smoothSolver:  Solving for Uy, Initial residual = 0.00127393, Final residual = 7.67929e-06, No Iterations 8
GAMG:  Solving for p, Initial residual = 0.0026933, Final residual = 1.2897e-05, No Iterations 4
time step continuity errors : sum local = 3.76736e-06, global = 7.54595e-17, cumulative = 2.54752e-15
smoothSolver:  Solving for nuTilda, Initial residual = 0.00217959, Final residual = 1.02698e-05, No Iterations 8
ExecutionTime = 5.63 s  ClockTime = 6 s

forces wings output:
    sum of forces:
        pressure : (3.10949 17.6348 -2.04998e-19)
        viscous  : (0.363013 -0.0636895 7.21443e-23)
        porous   : (0 0 0)
    sum of moments:
        pressure : (-0.881741 0.155474 0.569953)
        viscous  : (0.00318448 0.0181507 -8.75641e-05)
        porous   : (0 0 0)

Time = 61

smoothSolver:  Solving for Ux, Initial residual = 0.00288981, Final residual = 1.29321e-05, No Iterations 8
smoothSolver:  Solving for Uy, Initial residual = 0.00126562, Final residual = 7.65097e-06, No Iterations 8
GAMG:  Solving for p, Initial residual = 0.00265067, Final residual = 1.45406e-05, No Iterations 4
time step continuity errors : sum local = 4.24611e-06, global = 9.0967e-17, cumulative = 2.63849e-15
smoothSolver:  Solving for nuTilda, Initial residual = 0.00212503, Final residual = 1.00016e-05, No Iterations 8
bounding nuTilda, min: -6.5861e-05 max: 0.404653 average: 0.0665539
ExecutionTime = 5.72 s  ClockTime = 6 s

Time = 62

smoothSolver:  Solving for Ux, Initial residual = 0.00285128, Final residual = 1.27755e-05, No Iterations 8
smoothSolver:  Solving for Uy, Initial residual = 0.0012581, Final residual = 7.62464e-06, No Iterations 8
GAMG:  Solving for p, Initial residual = 0.00259986, Final residual = 1.43917e-05, No Iterations 4
time step continuity errors : sum local = 4.1993e-06, global = -1.9831e-16, cumulative = 2.44018e-15
smoothSolver:  Solving for nuTilda, Initial residual = 0.00207238, Final residual = 9.74318e-06, No Iterations 8
ExecutionTime = 5.8 s  ClockTime = 6 s

Time = 63

smoothSolver:  Solving for Ux, Initial residual = 0.00281551, Final residual = 1.26299e-05, No Iterations 8
smoothSolver:  Solving for Uy, Initial residual = 0.00124935, Final residual = 7.59183e-06, No Iterations 8
GAMG:  Solving for p, Initial residual = 0.0025624, Final residual = 1.27436e-05, No Iterations 4
time step continuity errors : sum local = 3.71903e-06, global = -9.78504e-18, cumulative = 2.43039e-15
smoothSolver:  Solving for nuTilda, Initial residual = 0.00202125, Final residual = 9.49415e-06, No Iterations 8
bounding nuTilda, min: -5.54996e-05 max: 0.40465 average: 0.0656699
ExecutionTime = 5.89 s  ClockTime = 6 s

Time = 64

smoothSolver:  Solving for Ux, Initial residual = 0.00277994, Final residual = 1.24835e-05, No Iterations 8
smoothSolver:  Solving for Uy, Initial residual = 0.00124006, Final residual = 7.55462e-06, No Iterations 8
GAMG:  Solving for p, Initial residual = 0.00251761, Final residual = 1.17551e-05, No Iterations 4
time step continuity errors : sum local = 3.43541e-06, global = 2.66193e-17, cumulative = 2.45701e-15
smoothSolver:  Solving for nuTilda, Initial residual = 0.00197174, Final residual = 9.25481e-06, No Iterations 8
ExecutionTime = 5.97 s  ClockTime = 6 s

Time = 65

smoothSolver:  Solving for Ux, Initial residual = 0.00274483, Final residual = 1.23351e-05, No Iterations 8
smoothSolver:  Solving for Uy, Initial residual = 0.00123043, Final residual = 7.51424e-06, No Iterations 8
GAMG:  Solving for p, Initial residual = 0.00246849, Final residual = 1.18395e-05, No Iterations 4
time step continuity errors : sum local = 3.45821e-06, global = 1.95505e-17, cumulative = 2.47656e-15
smoothSolver:  Solving for nuTilda, Initial residual = 0.00192465, Final residual = 9.02461e-06, No Iterations 8
bounding nuTilda, min: -4.34537e-05 max: 0.404647 average: 0.0648148
ExecutionTime = 6.06 s  ClockTime = 6 s

forces wings output:
    sum of forces:
        pressure : (3.19304 18.1087 -2.068e-19)
        viscous  : (0.35097 -0.0615756 5.29153e-23)
        porous   : (0 0 0)
    sum of moments:
        pressure : (-0.905434 0.159652 0.614345)
        viscous  : (0.00307878 0.0175485 -8.48922e-05)
        porous   : (0 0 0)

Time = 66

smoothSolver:  Solving for Ux, Initial residual = 0.00270956, Final residual = 1.21837e-05, No Iterations 8
smoothSolver:  Solving for Uy, Initial residual = 0.00122232, Final residual = 7.47864e-06, No Iterations 8
GAMG:  Solving for p, Initial residual = 0.00241719, Final residual = 1.26501e-05, No Iterations 4
time step continuity errors : sum local = 3.69105e-06, global = -1.4625e-16, cumulative = 2.33031e-15
smoothSolver:  Solving for nuTilda, Initial residual = 0.00187883, Final residual = 8.80577e-06, No Iterations 8
ExecutionTime = 6.15 s  ClockTime = 6 s

Time = 67

smoothSolver:  Solving for Ux, Initial residual = 0.00267585, Final residual = 1.20371e-05, No Iterations 8
smoothSolver:  Solving for Uy, Initial residual = 0.00121521, Final residual = 7.44741e-06, No Iterations 8
GAMG:  Solving for p, Initial residual = 0.00237275, Final residual = 1.3448e-05, No Iterations 4
time step continuity errors : sum local = 3.92201e-06, global = 2.0645e-16, cumulative = 2.53676e-15
smoothSolver:  Solving for nuTilda, Initial residual = 0.00183462, Final residual = 8.59455e-06, No Iterations 8
bounding nuTilda, min: -2.97222e-05 max: 0.404643 average: 0.0639871
ExecutionTime = 6.23 s  ClockTime = 7 s

Time = 68

smoothSolver:  Solving for Ux, Initial residual = 0.00264333, Final residual = 1.1896e-05, No Iterations 8
smoothSolver:  Solving for Uy, Initial residual = 0.00120849, Final residual = 7.41762e-06, No Iterations 8
GAMG:  Solving for p, Initial residual = 0.00232969, Final residual = 1.38113e-05, No Iterations 4
time step continuity errors : sum local = 4.0279e-06, global = -4.13446e-17, cumulative = 2.49542e-15
smoothSolver:  Solving for nuTilda, Initial residual = 0.00179203, Final residual = 8.39023e-06, No Iterations 8
ExecutionTime = 6.32 s  ClockTime = 7 s

Time = 69

smoothSolver:  Solving for Ux, Initial residual = 0.00261264, Final residual = 1.17622e-05, No Iterations 8
smoothSolver:  Solving for Uy, Initial residual = 0.00120071, Final residual = 7.38304e-06, No Iterations 8
GAMG:  Solving for p, Initial residual = 0.00229149, Final residual = 1.36397e-05, No Iterations 4
time step continuity errors : sum local = 3.98047e-06, global = 1.99662e-16, cumulative = 2.69508e-15
smoothSolver:  Solving for nuTilda, Initial residual = 0.00175058, Final residual = 8.19107e-06, No Iterations 8
bounding nuTilda, min: -1.39485e-05 max: 0.40464 average: 0.0631856
ExecutionTime = 6.4 s  ClockTime = 7 s

Time = 70

smoothSolver:  Solving for Ux, Initial residual = 0.0025827, Final residual = 1.16301e-05, No Iterations 8
smoothSolver:  Solving for Uy, Initial residual = 0.00119221, Final residual = 7.34391e-06, No Iterations 8
GAMG:  Solving for p, Initial residual = 0.00224884, Final residual = 1.34234e-05, No Iterations 4
time step continuity errors : sum local = 3.92067e-06, global = -7.48766e-17, cumulative = 2.6202e-15
smoothSolver:  Solving for nuTilda, Initial residual = 0.00171041, Final residual = 7.99743e-06, No Iterations 8
ExecutionTime = 6.48 s  ClockTime = 7 s

forces wings output:
    sum of forces:
        pressure : (3.27758 18.5881 -2.07731e-19)
        viscous  : (0.339256 -0.0595248 1.34016e-23)
        porous   : (0 0 0)
    sum of moments:
        pressure : (-0.929406 0.163879 0.650937)
        viscous  : (0.00297624 0.0169628 -8.06802e-05)
        porous   : (0 0 0)

Time = 71

smoothSolver:  Solving for Ux, Initial residual = 0.00255334, Final residual = 1.14994e-05, No Iterations 8
smoothSolver:  Solving for Uy, Initial residual = 0.00118328, Final residual = 7.3017e-06, No Iterations 8
GAMG:  Solving for p, Initial residual = 0.00220576, Final residual = 1.35051e-05, No Iterations 4
time step continuity errors : sum local = 3.94554e-06, global = 9.30633e-17, cumulative = 2.71327e-15
smoothSolver:  Solving for nuTilda, Initial residual = 0.00167187, Final residual = 7.81003e-06, No Iterations 8
ExecutionTime = 6.57 s  ClockTime = 7 s

Time = 72

smoothSolver:  Solving for Ux, Initial residual = 0.00252407, Final residual = 1.13674e-05, No Iterations 8
smoothSolver:  Solving for Uy, Initial residual = 0.00117498, Final residual = 7.26088e-06, No Iterations 8
GAMG:  Solving for p, Initial residual = 0.00215713, Final residual = 1.39306e-05, No Iterations 4
time step continuity errors : sum local = 4.06876e-06, global = 3.53175e-18, cumulative = 2.7168e-15
smoothSolver:  Solving for nuTilda, Initial residual = 0.00163474, Final residual = 7.62938e-06, No Iterations 8
bounding nuTilda, min: -0.000119003 max: 0.404635 average: 0.0620297
ExecutionTime = 6.66 s  ClockTime = 7 s

Time = 73

smoothSolver:  Solving for Ux, Initial residual = 0.00249562, Final residual = 1.12379e-05, No Iterations 8
smoothSolver:  Solving for Uy, Initial residual = 0.00116736, Final residual = 7.22211e-06, No Iterations 8
GAMG:  Solving for p, Initial residual = 0.00211474, Final residual = 1.44165e-05, No Iterations 4
time step continuity errors : sum local = 4.20978e-06, global = -2.86555e-17, cumulative = 2.68814e-15
smoothSolver:  Solving for nuTilda, Initial residual = 0.00159866, Final residual = 7.45434e-06, No Iterations 8
ExecutionTime = 6.74 s  ClockTime = 7 s

Time = 74

smoothSolver:  Solving for Ux, Initial residual = 0.0024681, Final residual = 1.11127e-05, No Iterations 8
smoothSolver:  Solving for Uy, Initial residual = 0.00116003, Final residual = 7.18407e-06, No Iterations 8
GAMG:  Solving for p, Initial residual = 0.00207001, Final residual = 1.49258e-05, No Iterations 4
time step continuity errors : sum local = 4.35677e-06, global = 6.10457e-17, cumulative = 2.74919e-15
smoothSolver:  Solving for nuTilda, Initial residual = 0.00156348, Final residual = 7.2848e-06, No Iterations 8
ExecutionTime = 6.83 s  ClockTime = 7 s

Time = 75

smoothSolver:  Solving for Ux, Initial residual = 0.00244141, Final residual = 1.09927e-05, No Iterations 8
smoothSolver:  Solving for Uy, Initial residual = 0.00115224, Final residual = 7.14396e-06, No Iterations 8
GAMG:  Solving for p, Initial residual = 0.00202786, Final residual = 1.51587e-05, No Iterations 4
time step continuity errors : sum local = 4.42418e-06, global = 9.64895e-17, cumulative = 2.84568e-15
smoothSolver:  Solving for nuTilda, Initial residual = 0.00152956, Final residual = 7.1188e-06, No Iterations 8
bounding nuTilda, min: -4.74743e-05 max: 0.40463 average: 0.0609262
ExecutionTime = 6.91 s  ClockTime = 7 s

forces wings output:
    sum of forces:
        pressure : (3.36168 19.0651 -2.08007e-19)
        viscous  : (0.327938 -0.0575684 4.70422e-24)
        porous   : (0 0 0)
    sum of moments:
        pressure : (-0.953255 0.168084 0.676308)
        viscous  : (0.00287842 0.0163969 -7.0818e-05)
        porous   : (0 0 0)

Time = 76

smoothSolver:  Solving for Ux, Initial residual = 0.00241528, Final residual = 1.08732e-05, No Iterations 8
smoothSolver:  Solving for Uy, Initial residual = 0.00114442, Final residual = 7.10261e-06, No Iterations 8
GAMG:  Solving for p, Initial residual = 0.00198383, Final residual = 1.51446e-05, No Iterations 4
time step continuity errors : sum local = 4.41761e-06, global = -1.56227e-16, cumulative = 2.68945e-15
smoothSolver:  Solving for nuTilda, Initial residual = 0.00149646, Final residual = 6.95815e-06, No Iterations 8
ExecutionTime = 7.01 s  ClockTime = 7 s

Time = 77

smoothSolver:  Solving for Ux, Initial residual = 0.00238992, Final residual = 1.07551e-05, No Iterations 8
smoothSolver:  Solving for Uy, Initial residual = 0.00113667, Final residual = 7.06027e-06, No Iterations 8
GAMG:  Solving for p, Initial residual = 0.00195086, Final residual = 1.62308e-05, No Iterations 4
time step continuity errors : sum local = 4.73193e-06, global = 3.67722e-17, cumulative = 2.72622e-15
smoothSolver:  Solving for nuTilda, Initial residual = 0.00146399, Final residual = 6.80259e-06, No Iterations 8
ExecutionTime = 7.1 s  ClockTime = 7 s

Time = 78

smoothSolver:  Solving for Ux, Initial residual = 0.0023653, Final residual = 1.06401e-05, No Iterations 8
smoothSolver:  Solving for Uy, Initial residual = 0.00112881, Final residual = 7.0168e-06, No Iterations 8
GAMG:  Solving for p, Initial residual = 0.00190966, Final residual = 1.57214e-05, No Iterations 4
time step continuity errors : sum local = 4.58425e-06, global = -3.40936e-16, cumulative = 2.38529e-15
smoothSolver:  Solving for nuTilda, Initial residual = 0.00143262, Final residual = 6.65232e-06, No Iterations 8
ExecutionTime = 7.19 s  ClockTime = 8 s

Time = 79

smoothSolver:  Solving for Ux, Initial residual = 0.00234015, Final residual = 1.0519e-05, No Iterations 8
smoothSolver:  Solving for Uy, Initial residual = 0.00112193, Final residual = 6.97576e-06, No Iterations 8
GAMG:  Solving for p, Initial residual = 0.00187028, Final residual = 1.59423e-05, No Iterations 4
time step continuity errors : sum local = 4.64772e-06, global = -1.58945e-16, cumulative = 2.22634e-15
smoothSolver:  Solving for nuTilda, Initial residual = 0.00140237, Final residual = 6.50686e-06, No Iterations 8
ExecutionTime = 7.27 s  ClockTime = 8 s

Time = 80

smoothSolver:  Solving for Ux, Initial residual = 0.00231632, Final residual = 1.04052e-05, No Iterations 8
smoothSolver:  Solving for Uy, Initial residual = 0.00111472, Final residual = 6.93302e-06, No Iterations 8
GAMG:  Solving for p, Initial residual = 0.0018351, Final residual = 1.77631e-05, No Iterations 4
time step continuity errors : sum local = 5.16384e-06, global = 1.91595e-17, cumulative = 2.2455e-15
smoothSolver:  Solving for nuTilda, Initial residual = 0.00137313, Final residual = 6.36617e-06, No Iterations 8
ExecutionTime = 7.36 s  ClockTime = 8 s

forces wings output:
    sum of forces:
        pressure : (3.44969 19.5642 -2.08165e-19)
        viscous  : (0.317032 -0.0556817 -4.48692e-23)
        porous   : (0 0 0)
    sum of moments:
        pressure : (-0.978209 0.172484 0.706827)
        viscous  : (0.00278408 0.0158516 -6.18578e-05)
        porous   : (0 0 0)

Time = 81

smoothSolver:  Solving for Ux, Initial residual = 0.00229476, Final residual = 1.03056e-05, No Iterations 8
smoothSolver:  Solving for Uy, Initial residual = 0.00110664, Final residual = 6.88701e-06, No Iterations 8
GAMG:  Solving for p, Initial residual = 0.00180125, Final residual = 1.44214e-05, No Iterations 4
time step continuity errors : sum local = 4.21142e-06, global = -1.86527e-16, cumulative = 2.05897e-15
smoothSolver:  Solving for nuTilda, Initial residual = 0.00134471, Final residual = 6.22943e-06, No Iterations 8
ExecutionTime = 7.45 s  ClockTime = 8 s

Time = 82

smoothSolver:  Solving for Ux, Initial residual = 0.00227277, Final residual = 1.02016e-05, No Iterations 8
smoothSolver:  Solving for Uy, Initial residual = 0.00109876, Final residual = 6.84001e-06, No Iterations 8
GAMG:  Solving for p, Initial residual = 0.00176725, Final residual = 1.60199e-05, No Iterations 4
time step continuity errors : sum local = 4.65843e-06, global = 2.89028e-16, cumulative = 2.348e-15
smoothSolver:  Solving for nuTilda, Initial residual = 0.0013171, Final residual = 6.09674e-06, No Iterations 8
ExecutionTime = 7.53 s  ClockTime = 8 s

Time = 83

smoothSolver:  Solving for Ux, Initial residual = 0.00225122, Final residual = 1.00991e-05, No Iterations 8
smoothSolver:  Solving for Uy, Initial residual = 0.00109047, Final residual = 6.79071e-06, No Iterations 8
GAMG:  Solving for p, Initial residual = 0.00173343, Final residual = 1.52865e-05, No Iterations 4
time step continuity errors : sum local = 4.44718e-06, global = -1.59855e-16, cumulative = 2.18815e-15
smoothSolver:  Solving for nuTilda, Initial residual = 0.00129018, Final residual = 5.96798e-06, No Iterations 8
ExecutionTime = 7.62 s  ClockTime = 8 s

Time = 84

smoothSolver:  Solving for Ux, Initial residual = 0.00222975, Final residual = 9.99522e-06, No Iterations 8
smoothSolver:  Solving for Uy, Initial residual = 0.0010826, Final residual = 6.74203e-06, No Iterations 8
GAMG:  Solving for p, Initial residual = 0.00170274, Final residual = 1.46897e-05, No Iterations 4
time step continuity errors : sum local = 4.2832e-06, global = -2.75332e-16, cumulative = 1.91281e-15
smoothSolver:  Solving for nuTilda, Initial residual = 0.00126396, Final residual = 5.84339e-06, No Iterations 8
ExecutionTime = 7.7 s  ClockTime = 8 s

Time = 85

smoothSolver:  Solving for Ux, Initial residual = 0.00220869, Final residual = 9.89253e-06, No Iterations 8
smoothSolver:  Solving for Uy, Initial residual = 0.00107515, Final residual = 6.69443e-06, No Iterations 8
GAMG:  Solving for p, Initial residual = 0.00167468, Final residual = 1.61023e-05, No Iterations 4
time step continuity errors : sum local = 4.67618e-06, global = -1.31373e-16, cumulative = 1.78144e-15
smoothSolver:  Solving for nuTilda, Initial residual = 0.00123863, Final residual = 5.72241e-06, No Iterations 8
ExecutionTime = 7.79 s  ClockTime = 8 s

forces wings output:
    sum of forces:
        pressure : (3.53949 20.0735 -2.08279e-19)
        viscous  : (0.306666 -0.053866 -5.04748e-23)
        porous   : (0 0 0)
    sum of moments:
        pressure : (-1.00367 0.176975 0.728017)
        viscous  : (0.0026933 0.0153333 -5.87968e-05)
        porous   : (0 0 0)

Time = 86

smoothSolver:  Solving for Ux, Initial residual = 0.0021887, Final residual = 9.79539e-06, No Iterations 8
smoothSolver:  Solving for Uy, Initial residual = 0.00106748, Final residual = 6.64555e-06, No Iterations 8
GAMG:  Solving for p, Initial residual = 0.00165141, Final residual = 6.12645e-06, No Iterations 5
time step continuity errors : sum local = 1.78461e-06, global = 1.74853e-16, cumulative = 1.95629e-15
smoothSolver:  Solving for nuTilda, Initial residual = 0.00121421, Final residual = 5.60463e-06, No Iterations 8
ExecutionTime = 7.88 s  ClockTime = 8 s

Time = 87

smoothSolver:  Solving for Ux, Initial residual = 0.00216955, Final residual = 9.70264e-06, No Iterations 8
smoothSolver:  Solving for Uy, Initial residual = 0.00105966, Final residual = 6.59568e-06, No Iterations 8
GAMG:  Solving for p, Initial residual = 0.00162743, Final residual = 1.62151e-05, No Iterations 4
time step continuity errors : sum local = 4.71278e-06, global = -2.36301e-16, cumulative = 1.71999e-15
smoothSolver:  Solving for nuTilda, Initial residual = 0.00119061, Final residual = 5.48945e-06, No Iterations 8
ExecutionTime = 7.96 s  ClockTime = 8 s

Time = 88

smoothSolver:  Solving for Ux, Initial residual = 0.00215017, Final residual = 9.60775e-06, No Iterations 8
smoothSolver:  Solving for Uy, Initial residual = 0.00105185, Final residual = 6.5447e-06, No Iterations 8
GAMG:  Solving for p, Initial residual = 0.00160436, Final residual = 1.5613e-05, No Iterations 4
time step continuity errors : sum local = 4.55081e-06, global = 1.06611e-16, cumulative = 1.8266e-15
smoothSolver:  Solving for nuTilda, Initial residual = 0.0011674, Final residual = 5.37782e-06, No Iterations 8
ExecutionTime = 8.04 s  ClockTime = 8 s

Time = 89

smoothSolver:  Solving for Ux, Initial residual = 0.00213091, Final residual = 9.51376e-06, No Iterations 8
smoothSolver:  Solving for Uy, Initial residual = 0.00104402, Final residual = 6.49304e-06, No Iterations 8
GAMG:  Solving for p, Initial residual = 0.00158209, Final residual = 6.34789e-06, No Iterations 5
time step continuity errors : sum local = 1.85165e-06, global = -1.49746e-16, cumulative = 1.67686e-15
smoothSolver:  Solving for nuTilda, Initial residual = 0.00114462, Final residual = 5.26916e-06, No Iterations 8
ExecutionTime = 8.13 s  ClockTime = 8 s

Time = 90

smoothSolver:  Solving for Ux, Initial residual = 0.00211265, Final residual = 9.42549e-06, No Iterations 8
smoothSolver:  Solving for Uy, Initial residual = 0.00103579, Final residual = 6.43975e-06, No Iterations 8
GAMG:  Solving for p, Initial residual = 0.00156299, Final residual = 1.48242e-05, No Iterations 4
time step continuity errors : sum local = 4.32057e-06, global = -2.56414e-16, cumulative = 1.42044e-15
smoothSolver:  Solving for nuTilda, Initial residual = 0.00112234, Final residual = 5.1636e-06, No Iterations 8
ExecutionTime = 8.21 s  ClockTime = 9 s

forces wings output:
    sum of forces:
        pressure : (3.63054 20.5899 -2.07954e-19)
        viscous  : (0.29707 -0.0521987 -8.19285e-23)
        porous   : (0 0 0)
    sum of moments:
        pressure : (-1.02949 0.181527 0.749808)
        viscous  : (0.00260993 0.0148535 -5.28578e-05)
        porous   : (0 0 0)

Time = 91

smoothSolver:  Solving for Ux, Initial residual = 0.00209366, Final residual = 9.32977e-06, No Iterations 8
smoothSolver:  Solving for Uy, Initial residual = 0.00102839, Final residual = 6.3883e-06, No Iterations 8
GAMG:  Solving for p, Initial residual = 0.00154093, Final residual = 7.21373e-06, No Iterations 5
time step continuity errors : sum local = 2.10144e-06, global = -1.66341e-16, cumulative = 1.2541e-15
smoothSolver:  Solving for nuTilda, Initial residual = 0.00110058, Final residual = 5.06083e-06, No Iterations 8
ExecutionTime = 8.31 s  ClockTime = 9 s

Time = 92

smoothSolver:  Solving for Ux, Initial residual = 0.00207675, Final residual = 9.24819e-06, No Iterations 8
smoothSolver:  Solving for Uy, Initial residual = 0.00101973, Final residual = 6.3331e-06, No Iterations 8
GAMG:  Solving for p, Initial residual = 0.00152523, Final residual = 1.52083e-05, No Iterations 4
time step continuity errors : sum local = 4.44596e-06, global = -1.10779e-17, cumulative = 1.24303e-15
smoothSolver:  Solving for nuTilda, Initial residual = 0.00107931, Final residual = 4.96091e-06, No Iterations 8
ExecutionTime = 8.39 s  ClockTime = 9 s

Time = 93

smoothSolver:  Solving for Ux, Initial residual = 0.00205969, Final residual = 9.16421e-06, No Iterations 8
smoothSolver:  Solving for Uy, Initial residual = 0.00101145, Final residual = 6.27815e-06, No Iterations 8
GAMG:  Solving for p, Initial residual = 0.00150528, Final residual = 6.46378e-06, No Iterations 5
time step continuity errors : sum local = 1.88716e-06, global = 1.0342e-16, cumulative = 1.34645e-15
smoothSolver:  Solving for nuTilda, Initial residual = 0.00105852, Final residual = 4.86347e-06, No Iterations 8
ExecutionTime = 8.48 s  ClockTime = 9 s

Time = 94

smoothSolver:  Solving for Ux, Initial residual = 0.00204302, Final residual = 9.08257e-06, No Iterations 8
smoothSolver:  Solving for Uy, Initial residual = 0.00100306, Final residual = 6.22244e-06, No Iterations 8
GAMG:  Solving for p, Initial residual = 0.00148935, Final residual = 1.47759e-05, No Iterations 4
time step continuity errors : sum local = 4.30982e-06, global = -1.21561e-16, cumulative = 1.22488e-15
smoothSolver:  Solving for nuTilda, Initial residual = 0.00103836, Final residual = 4.76888e-06, No Iterations 8
ExecutionTime = 8.56 s  ClockTime = 9 s

Time = 95

smoothSolver:  Solving for Ux, Initial residual = 0.00202496, Final residual = 8.98934e-06, No Iterations 8
smoothSolver:  Solving for Uy, Initial residual = 0.000995799, Final residual = 6.16918e-06, No Iterations 8
GAMG:  Solving for p, Initial residual = 0.00146893, Final residual = 6.76196e-06, No Iterations 5
time step continuity errors : sum local = 1.96938e-06, global = 1.76502e-16, cumulative = 1.40139e-15
smoothSolver:  Solving for nuTilda, Initial residual = 0.00101891, Final residual = 4.67718e-06, No Iterations 8
ExecutionTime = 8.65 s  ClockTime = 9 s

forces wings output:
    sum of forces:
        pressure : (3.7264 21.1335 -2.07997e-19)
        viscous  : (0.288436 -0.0506944 -1.50607e-22)
        porous   : (0 0 0)
    sum of moments:
        pressure : (-1.05668 0.18632 0.774231)
        viscous  : (0.00253472 0.0144218 -4.85408e-05)
        porous   : (0 0 0)

Time = 96

smoothSolver:  Solving for Ux, Initial residual = 0.0020087, Final residual = 8.91056e-06, No Iterations 8
smoothSolver:  Solving for Uy, Initial residual = 0.000987287, Final residual = 6.11252e-06, No Iterations 8
GAMG:  Solving for p, Initial residual = 0.00145536, Final residual = 7.17147e-06, No Iterations 5
time step continuity errors : sum local = 2.09162e-06, global = 1.811e-16, cumulative = 1.58249e-15
smoothSolver:  Solving for nuTilda, Initial residual = 0.00100011, Final residual = 4.58843e-06, No Iterations 8
ExecutionTime = 8.74 s  ClockTime = 9 s

Time = 97

smoothSolver:  Solving for Ux, Initial residual = 0.00199289, Final residual = 8.8333e-06, No Iterations 8
smoothSolver:  Solving for Uy, Initial residual = 0.000978706, Final residual = 6.05481e-06, No Iterations 8
GAMG:  Solving for p, Initial residual = 0.00143746, Final residual = 6.99964e-06, No Iterations 5
time step continuity errors : sum local = 2.04087e-06, global = -1.21447e-16, cumulative = 1.46104e-15
smoothSolver:  Solving for nuTilda, Initial residual = 0.000981976, Final residual = 4.50245e-06, No Iterations 8
ExecutionTime = 8.83 s  ClockTime = 9 s

Time = 98

smoothSolver:  Solving for Ux, Initial residual = 0.00197717, Final residual = 8.75561e-06, No Iterations 8
smoothSolver:  Solving for Uy, Initial residual = 0.000969994, Final residual = 5.99566e-06, No Iterations 8
GAMG:  Solving for p, Initial residual = 0.00142323, Final residual = 6.61528e-06, No Iterations 5
time step continuity errors : sum local = 1.92721e-06, global = 1.75587e-16, cumulative = 1.63663e-15
smoothSolver:  Solving for nuTilda, Initial residual = 0.000964327, Final residual = 4.41846e-06, No Iterations 8
ExecutionTime = 8.91 s  ClockTime = 9 s

Time = 99

smoothSolver:  Solving for Ux, Initial residual = 0.00196148, Final residual = 8.67814e-06, No Iterations 8
smoothSolver:  Solving for Uy, Initial residual = 0.000961289, Final residual = 5.93623e-06, No Iterations 8
GAMG:  Solving for p, Initial residual = 0.0014056, Final residual = 6.41268e-06, No Iterations 5
time step continuity errors : sum local = 1.86974e-06, global = -1.48044e-17, cumulative = 1.62182e-15
smoothSolver:  Solving for nuTilda, Initial residual = 0.000946987, Final residual = 4.33543e-06, No Iterations 8
ExecutionTime = 9 s  ClockTime = 9 s

Time = 100

smoothSolver:  Solving for Ux, Initial residual = 0.00194587, Final residual = 8.60134e-06, No Iterations 8
smoothSolver:  Solving for Uy, Initial residual = 0.000952678, Final residual = 5.87696e-06, No Iterations 8
GAMG:  Solving for p, Initial residual = 0.00139357, Final residual = 6.52789e-06, No Iterations 5
time step continuity errors : sum local = 1.90329e-06, global = -4.55385e-17, cumulative = 1.57628e-15
smoothSolver:  Solving for nuTilda, Initial residual = 0.000930058, Final residual = 4.25416e-06, No Iterations 8
ExecutionTime = 9.09 s  ClockTime = 9 s

forces wings output:
    sum of forces:
        pressure : (3.82166 21.6737 -2.08293e-19)
        viscous  : (0.280422 -0.0492996 -2.2568e-22)
        porous   : (0 0 0)
    sum of moments:
        pressure : (-1.08369 0.191083 0.79475)
        viscous  : (0.00246498 0.0140211 -4.44657e-05)
        porous   : (0 0 0)

Time = 101

smoothSolver:  Solving for Ux, Initial residual = 0.00193051, Final residual = 8.52544e-06, No Iterations 8
smoothSolver:  Solving for Uy, Initial residual = 0.000944192, Final residual = 5.81819e-06, No Iterations 8
GAMG:  Solving for p, Initial residual = 0.00137797, Final residual = 6.81792e-06, No Iterations 5
time step continuity errors : sum local = 1.98734e-06, global = 1.21635e-16, cumulative = 1.69792e-15
smoothSolver:  Solving for nuTilda, Initial residual = 0.000913554, Final residual = 4.17461e-06, No Iterations 8
ExecutionTime = 9.18 s  ClockTime = 10 s

Time = 102

smoothSolver:  Solving for Ux, Initial residual = 0.00191541, Final residual = 8.45083e-06, No Iterations 8
smoothSolver:  Solving for Uy, Initial residual = 0.000935641, Final residual = 5.75884e-06, No Iterations 8
GAMG:  Solving for p, Initial residual = 0.0013669, Final residual = 7.06113e-06, No Iterations 5
time step continuity errors : sum local = 2.05927e-06, global = -2.4569e-16, cumulative = 1.45223e-15
smoothSolver:  Solving for nuTilda, Initial residual = 0.000897471, Final residual = 4.09737e-06, No Iterations 8
ExecutionTime = 9.26 s  ClockTime = 10 s

Time = 103

smoothSolver:  Solving for Ux, Initial residual = 0.00190065, Final residual = 8.37769e-06, No Iterations 8
smoothSolver:  Solving for Uy, Initial residual = 0.000926891, Final residual = 5.69858e-06, No Iterations 8
GAMG:  Solving for p, Initial residual = 0.00135282, Final residual = 7.16128e-06, No Iterations 5
time step continuity errors : sum local = 2.08956e-06, global = -2.71971e-16, cumulative = 1.18026e-15
smoothSolver:  Solving for nuTilda, Initial residual = 0.000881699, Final residual = 4.02165e-06, No Iterations 8
ExecutionTime = 9.35 s  ClockTime = 10 s

Time = 104

smoothSolver:  Solving for Ux, Initial residual = 0.00188607, Final residual = 8.30577e-06, No Iterations 8
smoothSolver:  Solving for Uy, Initial residual = 0.000917927, Final residual = 5.63737e-06, No Iterations 8
GAMG:  Solving for p, Initial residual = 0.00134116, Final residual = 7.05367e-06, No Iterations 5
time step continuity errors : sum local = 2.05912e-06, global = 1.5041e-16, cumulative = 1.33067e-15
smoothSolver:  Solving for nuTilda, Initial residual = 0.000866265, Final residual = 3.9477e-06, No Iterations 8
ExecutionTime = 9.44 s  ClockTime = 10 s

Time = 105

smoothSolver:  Solving for Ux, Initial residual = 0.00187163, Final residual = 8.23472e-06, No Iterations 8
smoothSolver:  Solving for Uy, Initial residual = 0.000908921, Final residual = 5.57594e-06, No Iterations 8
GAMG:  Solving for p, Initial residual = 0.00132683, Final residual = 6.84138e-06, No Iterations 5
time step continuity errors : sum local = 1.99829e-06, global = 8.92136e-17, cumulative = 1.41988e-15
smoothSolver:  Solving for nuTilda, Initial residual = 0.000851186, Final residual = 3.87551e-06, No Iterations 8
ExecutionTime = 9.52 s  ClockTime = 10 s

forces wings output:
    sum of forces:
        pressure : (3.91458 22.2008 -2.08855e-19)
        viscous  : (0.272843 -0.0479771 -2.31602e-22)
        porous   : (0 0 0)
    sum of moments:
        pressure : (-1.11004 0.195729 0.813752)
        viscous  : (0.00239886 0.0136421 -4.12564e-05)
        porous   : (0 0 0)

Time = 106

smoothSolver:  Solving for Ux, Initial residual = 0.00185724, Final residual = 8.16429e-06, No Iterations 8
smoothSolver:  Solving for Uy, Initial residual = 0.00089996, Final residual = 5.5145e-06, No Iterations 8
GAMG:  Solving for p, Initial residual = 0.00131546, Final residual = 6.69189e-06, No Iterations 5
time step continuity errors : sum local = 1.95584e-06, global = 1.76021e-16, cumulative = 1.5959e-15
smoothSolver:  Solving for nuTilda, Initial residual = 0.000836396, Final residual = 3.80486e-06, No Iterations 8
ExecutionTime = 9.61 s  ClockTime = 10 s

Time = 107

smoothSolver:  Solving for Ux, Initial residual = 0.00184297, Final residual = 8.09431e-06, No Iterations 8
smoothSolver:  Solving for Uy, Initial residual = 0.000890996, Final residual = 5.45319e-06, No Iterations 8
GAMG:  Solving for p, Initial residual = 0.00130101, Final residual = 6.68534e-06, No Iterations 5
time step continuity errors : sum local = 1.95561e-06, global = 1.07686e-16, cumulative = 1.70359e-15
smoothSolver:  Solving for nuTilda, Initial residual = 0.000821802, Final residual = 3.73512e-06, No Iterations 8
ExecutionTime = 9.7 s  ClockTime = 10 s

Time = 108

smoothSolver:  Solving for Ux, Initial residual = 0.00182887, Final residual = 8.02521e-06, No Iterations 8
smoothSolver:  Solving for Uy, Initial residual = 0.000881993, Final residual = 5.3915e-06, No Iterations 8
GAMG:  Solving for p, Initial residual = 0.00128903, Final residual = 6.77941e-06, No Iterations 5
time step continuity errors : sum local = 1.98498e-06, global = 2.06757e-16, cumulative = 1.91034e-15
smoothSolver:  Solving for nuTilda, Initial residual = 0.000807455, Final residual = 3.66666e-06, No Iterations 8
ExecutionTime = 9.79 s  ClockTime = 10 s

Time = 109

smoothSolver:  Solving for Ux, Initial residual = 0.00181499, Final residual = 7.95703e-06, No Iterations 8
smoothSolver:  Solving for Uy, Initial residual = 0.000872901, Final residual = 5.32946e-06, No Iterations 8
GAMG:  Solving for p, Initial residual = 0.00127456, Final residual = 6.90337e-06, No Iterations 5
time step continuity errors : sum local = 2.02336e-06, global = -9.39767e-17, cumulative = 1.81637e-15
smoothSolver:  Solving for nuTilda, Initial residual = 0.000793366, Final residual = 3.59956e-06, No Iterations 8
ExecutionTime = 9.87 s  ClockTime = 10 s

Time = 110

smoothSolver:  Solving for Ux, Initial residual = 0.00180124, Final residual = 7.88973e-06, No Iterations 8
smoothSolver:  Solving for Uy, Initial residual = 0.000863736, Final residual = 5.26698e-06, No Iterations 8
GAMG:  Solving for p, Initial residual = 0.00126359, Final residual = 7.00019e-06, No Iterations 5
time step continuity errors : sum local = 2.05344e-06, global = 1.17912e-17, cumulative = 1.82816e-15
smoothSolver:  Solving for nuTilda, Initial residual = 0.000779551, Final residual = 3.53396e-06, No Iterations 8
ExecutionTime = 9.96 s  ClockTime = 10 s

forces wings output:
    sum of forces:
        pressure : (4.00396 22.7076 -2.09527e-19)
        viscous  : (0.265675 -0.0467251 -3.92518e-22)
        porous   : (0 0 0)
    sum of moments:
        pressure : (-1.13538 0.200198 0.828628)
        viscous  : (0.00233626 0.0132838 -3.88474e-05)
        porous   : (0 0 0)

Time = 111

smoothSolver:  Solving for Ux, Initial residual = 0.00178761, Final residual = 7.82291e-06, No Iterations 8
smoothSolver:  Solving for Uy, Initial residual = 0.000854563, Final residual = 5.2045e-06, No Iterations 8
GAMG:  Solving for p, Initial residual = 0.00125003, Final residual = 7.03954e-06, No Iterations 5
time step continuity errors : sum local = 2.06643e-06, global = -4.46152e-16, cumulative = 1.38201e-15
smoothSolver:  Solving for nuTilda, Initial residual = 0.000765965, Final residual = 3.46948e-06, No Iterations 8
ExecutionTime = 10.05 s  ClockTime = 10 s

Time = 112

smoothSolver:  Solving for Ux, Initial residual = 0.00177406, Final residual = 7.7563e-06, No Iterations 8
smoothSolver:  Solving for Uy, Initial residual = 0.000845422, Final residual = 5.14216e-06, No Iterations 8
GAMG:  Solving for p, Initial residual = 0.00123879, Final residual = 7.04435e-06, No Iterations 5
time step continuity errors : sum local = 2.06894e-06, global = -1.06512e-16, cumulative = 1.2755e-15
smoothSolver:  Solving for nuTilda, Initial residual = 0.000752739, Final residual = 3.40649e-06, No Iterations 8
ExecutionTime = 10.14 s  ClockTime = 10 s

Time = 113

smoothSolver:  Solving for Ux, Initial residual = 0.0017606, Final residual = 7.69002e-06, No Iterations 8
smoothSolver:  Solving for Uy, Initial residual = 0.000836317, Final residual = 5.08015e-06, No Iterations 8
GAMG:  Solving for p, Initial residual = 0.00122538, Final residual = 7.04024e-06, No Iterations 5
time step continuity errors : sum local = 2.06898e-06, global = 2.91483e-18, cumulative = 1.27841e-15
smoothSolver:  Solving for nuTilda, Initial residual = 0.000739604, Final residual = 3.3449e-06, No Iterations 8
ExecutionTime = 10.22 s  ClockTime = 11 s

Time = 114

smoothSolver:  Solving for Ux, Initial residual = 0.00174722, Final residual = 7.6241e-06, No Iterations 8
smoothSolver:  Solving for Uy, Initial residual = 0.000827201, Final residual = 5.01816e-06, No Iterations 8
GAMG:  Solving for p, Initial residual = 0.00121412, Final residual = 7.04989e-06, No Iterations 5
time step continuity errors : sum local = 2.07318e-06, global = -1.24474e-16, cumulative = 1.15394e-15
smoothSolver:  Solving for nuTilda, Initial residual = 0.000726797, Final residual = 3.28446e-06, No Iterations 8
ExecutionTime = 10.31 s  ClockTime = 11 s

Time = 115

smoothSolver:  Solving for Ux, Initial residual = 0.00173395, Final residual = 7.55869e-06, No Iterations 8
smoothSolver:  Solving for Uy, Initial residual = 0.000818055, Final residual = 4.95617e-06, No Iterations 8
GAMG:  Solving for p, Initial residual = 0.00120115, Final residual = 7.06093e-06, No Iterations 5
time step continuity errors : sum local = 2.07806e-06, global = -1.38993e-16, cumulative = 1.01494e-15
smoothSolver:  Solving for nuTilda, Initial residual = 0.000714273, Final residual = 3.22516e-06, No Iterations 8
ExecutionTime = 10.4 s  ClockTime = 11 s

forces wings output:
    sum of forces:
        pressure : (4.08953 23.1929 -2.10361e-19)
        viscous  : (0.258997 -0.0455508 -4.33857e-22)
        porous   : (0 0 0)
    sum of moments:
        pressure : (-1.15965 0.204476 0.842154)
        viscous  : (0.00227754 0.0129499 -3.85361e-05)
        porous   : (0 0 0)

Time = 116

smoothSolver:  Solving for Ux, Initial residual = 0.00172082, Final residual = 7.4939e-06, No Iterations 8
smoothSolver:  Solving for Uy, Initial residual = 0.00080888, Final residual = 4.89413e-06, No Iterations 8
GAMG:  Solving for p, Initial residual = 0.00118979, Final residual = 7.06952e-06, No Iterations 5
time step continuity errors : sum local = 2.08214e-06, global = 5.60946e-17, cumulative = 1.07104e-15
smoothSolver:  Solving for nuTilda, Initial residual = 0.000702123, Final residual = 3.16677e-06, No Iterations 8
ExecutionTime = 10.49 s  ClockTime = 11 s

Time = 117

smoothSolver:  Solving for Ux, Initial residual = 0.00170781, Final residual = 7.42971e-06, No Iterations 8
smoothSolver:  Solving for Uy, Initial residual = 0.000799701, Final residual = 4.83229e-06, No Iterations 8
GAMG:  Solving for p, Initial residual = 0.00117673, Final residual = 6.51583e-06, No Iterations 5
time step continuity errors : sum local = 1.91129e-06, global = 5.99459e-17, cumulative = 1.13098e-15
smoothSolver:  Solving for nuTilda, Initial residual = 0.000690154, Final residual = 3.10975e-06, No Iterations 8
ExecutionTime = 10.58 s  ClockTime = 11 s

Time = 118

smoothSolver:  Solving for Ux, Initial residual = 0.00169494, Final residual = 7.3662e-06, No Iterations 8
smoothSolver:  Solving for Uy, Initial residual = 0.000790436, Final residual = 4.77034e-06, No Iterations 8
GAMG:  Solving for p, Initial residual = 0.00116549, Final residual = 6.80477e-06, No Iterations 5
time step continuity errors : sum local = 2.00274e-06, global = -8.40056e-17, cumulative = 1.04698e-15
smoothSolver:  Solving for nuTilda, Initial residual = 0.000678414, Final residual = 3.05416e-06, No Iterations 8
ExecutionTime = 10.66 s  ClockTime = 11 s

Time = 119

smoothSolver:  Solving for Ux, Initial residual = 0.001682, Final residual = 7.30173e-06, No Iterations 8
smoothSolver:  Solving for Uy, Initial residual = 0.000781407, Final residual = 4.70944e-06, No Iterations 8
GAMG:  Solving for p, Initial residual = 0.00115232, Final residual = 6.28556e-06, No Iterations 5
time step continuity errors : sum local = 1.84359e-06, global = -6.00199e-17, cumulative = 9.86958e-16
smoothSolver:  Solving for nuTilda, Initial residual = 0.000666919, Final residual = 2.99966e-06, No Iterations 8
ExecutionTime = 10.75 s  ClockTime = 11 s

Time = 120

[...]
    sum of forces:
        pressure : (4.09599 23.2295 -1.09628e-20)
        viscous  : (0.0732114 -0.0127764 -3.72032e-21)
        porous   : (0 0 0)
    sum of moments:
        pressure : (-1.16148 0.204799 2.51523)
        viscous  : (0.000638822 0.00366057 -6.85342e-05)
        porous   : (0 0 0)

Time = 4971

smoothSolver:  Solving for Ux, Initial residual = 1.55847e-06, Final residual = 8.45343e-09, No Iterations 8
smoothSolver:  Solving for Uy, Initial residual = 7.60234e-06, Final residual = 4.35099e-08, No Iterations 8
GAMG:  Solving for p, Initial residual = 6.95279e-06, Final residual = 9.7797e-07, No Iterations 1
time step continuity errors : sum local = 3.02341e-07, global = 2.13911e-16, cumulative = 6.52131e-14
smoothSolver:  Solving for nuTilda, Initial residual = 5.89039e-07, Final residual = 2.56146e-09, No Iterations 8
ExecutionTime = 416.35 s  ClockTime = 417 s

Time = 4972

smoothSolver:  Solving for Ux, Initial residual = 1.5549e-06, Final residual = 8.42837e-09, No Iterations 8
smoothSolver:  Solving for Uy, Initial residual = 7.57069e-06, Final residual = 4.32845e-08, No Iterations 8
GAMG:  Solving for p, Initial residual = 6.99561e-06, Final residual = 5.22325e-07, No Iterations 2
time step continuity errors : sum local = 1.62152e-07, global = 2.01465e-16, cumulative = 6.54145e-14
smoothSolver:  Solving for nuTilda, Initial residual = 5.87155e-07, Final residual = 2.56043e-09, No Iterations 8
ExecutionTime = 416.43 s  ClockTime = 417 s

Time = 4973

smoothSolver:  Solving for Ux, Initial residual = 1.55654e-06, Final residual = 8.44031e-09, No Iterations 8
smoothSolver:  Solving for Uy, Initial residual = 7.53697e-06, Final residual = 4.32086e-08, No Iterations 8
GAMG:  Solving for p, Initial residual = 6.99805e-06, Final residual = 8.85707e-07, No Iterations 1
time step continuity errors : sum local = 2.74385e-07, global = -6.83151e-17, cumulative = 6.53462e-14
smoothSolver:  Solving for nuTilda, Initial residual = 5.87729e-07, Final residual = 2.55728e-09, No Iterations 8
ExecutionTime = 416.51 s  ClockTime = 417 s

Time = 4974

smoothSolver:  Solving for Ux, Initial residual = 1.55177e-06, Final residual = 8.40512e-09, No Iterations 8
smoothSolver:  Solving for Uy, Initial residual = 7.52893e-06, Final residual = 4.30362e-08, No Iterations 8
GAMG:  Solving for p, Initial residual = 6.95615e-06, Final residual = 4.96224e-07, No Iterations 2
time step continuity errors : sum local = 1.54463e-07, global = -2.05988e-16, cumulative = 6.51402e-14
smoothSolver:  Solving for nuTilda, Initial residual = 5.85689e-07, Final residual = 2.55586e-09, No Iterations 8
ExecutionTime = 416.59 s  ClockTime = 417 s

Time = 4975

smoothSolver:  Solving for Ux, Initial residual = 1.54982e-06, Final residual = 8.40026e-09, No Iterations 8
smoothSolver:  Solving for Uy, Initial residual = 7.55684e-06, Final residual = 4.32523e-08, No Iterations 8
GAMG:  Solving for p, Initial residual = 6.94666e-06, Final residual = 5.26546e-07, No Iterations 2
time step continuity errors : sum local = 1.63326e-07, global = 2.40702e-16, cumulative = 6.53809e-14
smoothSolver:  Solving for nuTilda, Initial residual = 5.86132e-07, Final residual = 2.55342e-09, No Iterations 8
ExecutionTime = 416.67 s  ClockTime = 417 s

forces wings output:
    sum of forces:
        pressure : (4.09566 23.2277 -1.0986e-20)
        viscous  : (0.0732188 -0.0127778 -3.71966e-21)
        porous   : (0 0 0)
    sum of moments:
        pressure : (-1.16138 0.204783 2.51531)
        viscous  : (0.000638888 0.00366094 -6.85471e-05)
        porous   : (0 0 0)

Time = 4976

smoothSolver:  Solving for Ux, Initial residual = 1.55062e-06, Final residual = 8.40705e-09, No Iterations 8
smoothSolver:  Solving for Uy, Initial residual = 7.59129e-06, Final residual = 4.3522e-08, No Iterations 8
GAMG:  Solving for p, Initial residual = 6.96388e-06, Final residual = 8.41776e-07, No Iterations 1
time step continuity errors : sum local = 2.60374e-07, global = 9.72777e-17, cumulative = 6.54782e-14
smoothSolver:  Solving for nuTilda, Initial residual = 5.84165e-07, Final residual = 2.55061e-09, No Iterations 8
ExecutionTime = 416.74 s  ClockTime = 417 s

Time = 4977

smoothSolver:  Solving for Ux, Initial residual = 1.54541e-06, Final residual = 8.37165e-09, No Iterations 8
smoothSolver:  Solving for Uy, Initial residual = 7.57528e-06, Final residual = 4.33415e-08, No Iterations 8
GAMG:  Solving for p, Initial residual = 6.91241e-06, Final residual = 9.81256e-07, No Iterations 1
time step continuity errors : sum local = 3.03766e-07, global = -6.06394e-17, cumulative = 6.54176e-14
smoothSolver:  Solving for nuTilda, Initial residual = 5.84641e-07, Final residual = 2.54836e-09, No Iterations 8
ExecutionTime = 416.82 s  ClockTime = 417 s

Time = 4978

smoothSolver:  Solving for Ux, Initial residual = 1.54139e-06, Final residual = 8.34701e-09, No Iterations 8
smoothSolver:  Solving for Uy, Initial residual = 7.54813e-06, Final residual = 4.31369e-08, No Iterations 8
GAMG:  Solving for p, Initial residual = 6.9702e-06, Final residual = 4.39081e-07, No Iterations 2
time step continuity errors : sum local = 1.37423e-07, global = 1.44508e-16, cumulative = 6.55621e-14
smoothSolver:  Solving for nuTilda, Initial residual = 5.82693e-07, Final residual = 2.54686e-09, No Iterations 8
ExecutionTime = 416.89 s  ClockTime = 417 s

Time = 4979

smoothSolver:  Solving for Ux, Initial residual = 1.54195e-06, Final residual = 8.3563e-09, No Iterations 8
smoothSolver:  Solving for Uy, Initial residual = 7.51702e-06, Final residual = 4.3043e-08, No Iterations 8
GAMG:  Solving for p, Initial residual = 6.94656e-06, Final residual = 5.13986e-07, No Iterations 2
time step continuity errors : sum local = 1.59161e-07, global = 3.63408e-17, cumulative = 6.55984e-14
smoothSolver:  Solving for nuTilda, Initial residual = 5.83277e-07, Final residual = 2.54455e-09, No Iterations 8
ExecutionTime = 416.97 s  ClockTime = 417 s

Time = 4980

smoothSolver:  Solving for Ux, Initial residual = 1.54423e-06, Final residual = 8.36767e-09, No Iterations 8
smoothSolver:  Solving for Uy, Initial residual = 7.50682e-06, Final residual = 4.30165e-08, No Iterations 8
GAMG:  Solving for p, Initial residual = 6.94975e-06, Final residual = 7.71042e-07, No Iterations 1
time step continuity errors : sum local = 2.38403e-07, global = -1.78163e-16, cumulative = 6.54203e-14
smoothSolver:  Solving for nuTilda, Initial residual = 5.8138e-07, Final residual = 2.54202e-09, No Iterations 8
ExecutionTime = 417.04 s  ClockTime = 417 s

forces wings output:
    sum of forces:
        pressure : (4.09531 23.2257 -1.10092e-20)
        viscous  : (0.0732247 -0.0127788 -3.71572e-21)
        porous   : (0 0 0)
    sum of moments:
        pressure : (-1.16128 0.204765 2.51537)
        viscous  : (0.00063894 0.00366124 -6.85325e-05)
        porous   : (0 0 0)

Time = 4981

smoothSolver:  Solving for Ux, Initial residual = 1.53807e-06, Final residual = 8.32274e-09, No Iterations 8
smoothSolver:  Solving for Uy, Initial residual = 7.49341e-06, Final residual = 4.28005e-08, No Iterations 8
GAMG:  Solving for p, Initial residual = 6.86725e-06, Final residual = 9.44004e-07, No Iterations 1
time step continuity errors : sum local = 2.9172e-07, global = -8.81662e-17, cumulative = 6.53321e-14
smoothSolver:  Solving for nuTilda, Initial residual = 5.81911e-07, Final residual = 2.54007e-09, No Iterations 8
ExecutionTime = 417.12 s  ClockTime = 418 s

Time = 4982

smoothSolver:  Solving for Ux, Initial residual = 1.53231e-06, Final residual = 8.28471e-09, No Iterations 8
smoothSolver:  Solving for Uy, Initial residual = 7.49108e-06, Final residual = 4.27132e-08, No Iterations 8
GAMG:  Solving for p, Initial residual = 6.94271e-06, Final residual = 6.08341e-07, No Iterations 2
time step continuity errors : sum local = 1.88709e-07, global = -7.15709e-17, cumulative = 6.52605e-14
smoothSolver:  Solving for nuTilda, Initial residual = 5.79771e-07, Final residual = 9.99692e-09, No Iterations 6
ExecutionTime = 417.2 s  ClockTime = 418 s

Time = 4983

smoothSolver:  Solving for Ux, Initial residual = 1.53268e-06, Final residual = 8.29952e-09, No Iterations 8
smoothSolver:  Solving for Uy, Initial residual = 7.54639e-06, Final residual = 4.32397e-08, No Iterations 8
GAMG:  Solving for p, Initial residual = 6.96828e-06, Final residual = 4.55309e-07, No Iterations 2
time step continuity errors : sum local = 1.42265e-07, global = 8.49832e-17, cumulative = 6.53455e-14
smoothSolver:  Solving for nuTilda, Initial residual = 5.80338e-07, Final residual = 9.9777e-09, No Iterations 6
ExecutionTime = 417.27 s  ClockTime = 418 s

Time = 4984

smoothSolver:  Solving for Ux, Initial residual = 1.53341e-06, Final residual = 8.30508e-09, No Iterations 8
smoothSolver:  Solving for Uy, Initial residual = 7.56549e-06, Final residual = 4.33539e-08, No Iterations 8
GAMG:  Solving for p, Initial residual = 6.94409e-06, Final residual = 9.40233e-07, No Iterations 1
time step continuity errors : sum local = 2.90672e-07, global = 4.64877e-17, cumulative = 6.5392e-14
smoothSolver:  Solving for nuTilda, Initial residual = 5.78476e-07, Final residual = 9.96649e-09, No Iterations 6
ExecutionTime = 417.35 s  ClockTime = 418 s

Time = 4985

smoothSolver:  Solving for Ux, Initial residual = 1.52972e-06, Final residual = 8.28008e-09, No Iterations 8
smoothSolver:  Solving for Uy, Initial residual = 7.53013e-06, Final residual = 4.30762e-08, No Iterations 8
GAMG:  Solving for p, Initial residual = 6.89338e-06, Final residual = 9.69838e-07, No Iterations 1
time step continuity errors : sum local = 2.99777e-07, global = 7.83121e-17, cumulative = 6.54703e-14
smoothSolver:  Solving for nuTilda, Initial residual = 5.79228e-07, Final residual = 9.95783e-09, No Iterations 6
ExecutionTime = 417.42 s  ClockTime = 418 s

forces wings output:
    sum of forces:
        pressure : (4.09502 23.224 -1.10273e-20)
        viscous  : (0.0732321 -0.0127801 -3.71522e-21)
        porous   : (0 0 0)
    sum of moments:
        pressure : (-1.1612 0.204751 2.51544)
        viscous  : (0.000639006 0.0036616 -6.8544e-05)
        porous   : (0 0 0)

Time = 4986

smoothSolver:  Solving for Ux, Initial residual = 1.52607e-06, Final residual = 8.25464e-09, No Iterations 8
smoothSolver:  Solving for Uy, Initial residual = 7.48042e-06, Final residual = 4.27162e-08, No Iterations 8
GAMG:  Solving for p, Initial residual = 6.90391e-06, Final residual = 4.86848e-07, No Iterations 2
time step continuity errors : sum local = 1.51015e-07, global = -6.18684e-17, cumulative = 6.54084e-14
smoothSolver:  Solving for nuTilda, Initial residual = 5.77556e-07, Final residual = 9.95517e-09, No Iterations 6
ExecutionTime = 417.51 s  ClockTime = 418 s

Time = 4987

smoothSolver:  Solving for Ux, Initial residual = 1.52633e-06, Final residual = 8.25899e-09, No Iterations 8
smoothSolver:  Solving for Uy, Initial residual = 7.43623e-06, Final residual = 4.25501e-08, No Iterations 8
GAMG:  Solving for p, Initial residual = 6.89067e-06, Final residual = 8.65741e-07, No Iterations 1
time step continuity errors : sum local = 2.68054e-07, global = -1.09053e-16, cumulative = 6.52994e-14
smoothSolver:  Solving for nuTilda, Initial residual = 5.78288e-07, Final residual = 9.94467e-09, No Iterations 6
ExecutionTime = 417.58 s  ClockTime = 418 s

Time = 4988

smoothSolver:  Solving for Ux, Initial residual = 1.52146e-06, Final residual = 8.22223e-09, No Iterations 8
smoothSolver:  Solving for Uy, Initial residual = 7.42846e-06, Final residual = 4.23666e-08, No Iterations 8
GAMG:  Solving for p, Initial residual = 6.87114e-06, Final residual = 5.23092e-07, No Iterations 2
time step continuity errors : sum local = 1.62544e-07, global = 1.35015e-16, cumulative = 6.54344e-14
smoothSolver:  Solving for nuTilda, Initial residual = 5.76366e-07, Final residual = 9.94074e-09, No Iterations 6
ExecutionTime = 417.66 s  ClockTime = 418 s

Time = 4989

smoothSolver:  Solving for Ux, Initial residual = 1.51996e-06, Final residual = 8.22006e-09, No Iterations 8
smoothSolver:  Solving for Uy, Initial residual = 7.46873e-06, Final residual = 4.26953e-08, No Iterations 8
GAMG:  Solving for p, Initial residual = 6.8742e-06, Final residual = 5.32536e-07, No Iterations 2
time step continuity errors : sum local = 1.65151e-07, global = -2.03858e-16, cumulative = 6.52305e-14
smoothSolver:  Solving for nuTilda, Initial residual = 5.7691e-07, Final residual = 9.93144e-09, No Iterations 6
ExecutionTime = 417.73 s  ClockTime = 418 s

Time = 4990

smoothSolver:  Solving for Ux, Initial residual = 1.52097e-06, Final residual = 8.22704e-09, No Iterations 8
smoothSolver:  Solving for Uy, Initial residual = 7.52108e-06, Final residual = 4.3076e-08, No Iterations 8
GAMG:  Solving for p, Initial residual = 6.89243e-06, Final residual = 8.64217e-07, No Iterations 1
time step continuity errors : sum local = 2.67423e-07, global = -4.8816e-17, cumulative = 6.51817e-14
smoothSolver:  Solving for nuTilda, Initial residual = 5.75076e-07, Final residual = 9.92203e-09, No Iterations 6
ExecutionTime = 417.8 s  ClockTime = 418 s

forces wings output:
    sum of forces:
        pressure : (4.09476 23.2226 -1.10454e-20)
        viscous  : (0.0732381 -0.0127812 -3.71188e-21)
        porous   : (0 0 0)
    sum of moments:
        pressure : (-1.16113 0.204738 2.5155)
        viscous  : (0.000639058 0.0036619 -6.85311e-05)
        porous   : (0 0 0)

Time = 4991

smoothSolver:  Solving for Ux, Initial residual = 1.51617e-06, Final residual = 8.19564e-09, No Iterations 8
smoothSolver:  Solving for Uy, Initial residual = 7.506e-06, Final residual = 4.29086e-08, No Iterations 8
GAMG:  Solving for p, Initial residual = 6.85062e-06, Final residual = 3.71167e-07, No Iterations 2
time step continuity errors : sum local = 1.16248e-07, global = 9.4053e-17, cumulative = 6.52758e-14
smoothSolver:  Solving for nuTilda, Initial residual = 5.75745e-07, Final residual = 9.91517e-09, No Iterations 6
ExecutionTime = 417.89 s  ClockTime = 418 s

Time = 4992

smoothSolver:  Solving for Ux, Initial residual = 1.51458e-06, Final residual = 8.19008e-09, No Iterations 8
smoothSolver:  Solving for Uy, Initial residual = 7.45435e-06, Final residual = 4.26271e-08, No Iterations 8
GAMG:  Solving for p, Initial residual = 6.8072e-06, Final residual = 9.30848e-07, No Iterations 1
time step continuity errors : sum local = 2.87836e-07, global = 9.33747e-17, cumulative = 6.53691e-14
smoothSolver:  Solving for nuTilda, Initial residual = 5.73957e-07, Final residual = 9.90736e-09, No Iterations 6
ExecutionTime = 417.96 s  ClockTime = 418 s

Time = 4993

smoothSolver:  Solving for Ux, Initial residual = 1.51028e-06, Final residual = 8.16444e-09, No Iterations 8
smoothSolver:  Solving for Uy, Initial residual = 7.43195e-06, Final residual = 4.24113e-08, No Iterations 8
GAMG:  Solving for p, Initial residual = 6.81697e-06, Final residual = 5.09124e-07, No Iterations 2
time step continuity errors : sum local = 1.57485e-07, global = 7.40011e-17, cumulative = 6.54431e-14
smoothSolver:  Solving for nuTilda, Initial residual = 5.74688e-07, Final residual = 9.90083e-09, No Iterations 6
ExecutionTime = 418.03 s  ClockTime = 418 s

Time = 4994

smoothSolver:  Solving for Ux, Initial residual = 1.51142e-06, Final residual = 8.17078e-09, No Iterations 8
smoothSolver:  Solving for Uy, Initial residual = 7.40653e-06, Final residual = 4.23642e-08, No Iterations 8
GAMG:  Solving for p, Initial residual = 6.82428e-06, Final residual = 8.5752e-07, No Iterations 1
time step continuity errors : sum local = 2.6501e-07, global = -2.23651e-17, cumulative = 6.54208e-14
smoothSolver:  Solving for nuTilda, Initial residual = 5.72854e-07, Final residual = 9.89149e-09, No Iterations 6
ExecutionTime = 418.11 s  ClockTime = 419 s

Time = 4995

smoothSolver:  Solving for Ux, Initial residual = 1.50673e-06, Final residual = 8.13527e-09, No Iterations 8
smoothSolver:  Solving for Uy, Initial residual = 7.40234e-06, Final residual = 4.22102e-08, No Iterations 8
GAMG:  Solving for p, Initial residual = 6.80149e-06, Final residual = 5.18431e-07, No Iterations 2
time step continuity errors : sum local = 1.60898e-07, global = 2.94291e-17, cumulative = 6.54502e-14
smoothSolver:  Solving for nuTilda, Initial residual = 5.73404e-07, Final residual = 9.88437e-09, No Iterations 6
ExecutionTime = 418.18 s  ClockTime = 419 s

forces wings output:
    sum of forces:
        pressure : (4.09441 23.2206 -1.10719e-20)
        viscous  : (0.0732456 -0.0127825 -3.71104e-21)
        porous   : (0 0 0)
    sum of moments:
        pressure : (-1.16103 0.20472 2.51555)
        viscous  : (0.000639125 0.00366228 -6.85436e-05)
        porous   : (0 0 0)

Time = 4996

smoothSolver:  Solving for Ux, Initial residual = 1.50622e-06, Final residual = 8.13473e-09, No Iterations 8
smoothSolver:  Solving for Uy, Initial residual = 7.43631e-06, Final residual = 4.25002e-08, No Iterations 8
GAMG:  Solving for p, Initial residual = 6.80777e-06, Final residual = 9.23712e-07, No Iterations 1
time step continuity errors : sum local = 2.8634e-07, global = 6.31261e-17, cumulative = 6.55133e-14
smoothSolver:  Solving for nuTilda, Initial residual = 5.71527e-07, Final residual = 9.87461e-09, No Iterations 6
ExecutionTime = 418.26 s  ClockTime = 419 s

Time = 4997

smoothSolver:  Solving for Ux, Initial residual = 1.50181e-06, Final residual = 8.10737e-09, No Iterations 8
smoothSolver:  Solving for Uy, Initial residual = 7.4349e-06, Final residual = 4.24305e-08, No Iterations 8
GAMG:  Solving for p, Initial residual = 6.82769e-06, Final residual = 4.53858e-07, No Iterations 2
time step continuity errors : sum local = 1.41654e-07, global = -2.29535e-16, cumulative = 6.52838e-14
smoothSolver:  Solving for nuTilda, Initial residual = 5.72034e-07, Final residual = 9.86608e-09, No Iterations 6
ExecutionTime = 418.34 s  ClockTime = 419 s

Time = 4998

smoothSolver:  Solving for Ux, Initial residual = 1.50146e-06, Final residual = 8.11162e-09, No Iterations 8
smoothSolver:  Solving for Uy, Initial residual = 7.43281e-06, Final residual = 4.24993e-08, No Iterations 8
GAMG:  Solving for p, Initial residual = 6.81904e-06, Final residual = 5.06553e-07, No Iterations 2
time step continuity errors : sum local = 1.57215e-07, global = 1.04032e-16, cumulative = 6.53878e-14
smoothSolver:  Solving for nuTilda, Initial residual = 5.70199e-07, Final residual = 9.85978e-09, No Iterations 6
ExecutionTime = 418.42 s  ClockTime = 419 s

Time = 4999

smoothSolver:  Solving for Ux, Initial residual = 1.50336e-06, Final residual = 8.12547e-09, No Iterations 8
smoothSolver:  Solving for Uy, Initial residual = 7.40678e-06, Final residual = 4.2423e-08, No Iterations 8
GAMG:  Solving for p, Initial residual = 6.82725e-06, Final residual = 7.69842e-07, No Iterations 1
time step continuity errors : sum local = 2.37921e-07, global = -1.5726e-16, cumulative = 6.52306e-14
smoothSolver:  Solving for nuTilda, Initial residual = 5.70943e-07, Final residual = 9.84733e-09, No Iterations 6
ExecutionTime = 418.49 s  ClockTime = 419 s

Time = 5000

smoothSolver:  Solving for Ux, Initial residual = 1.49743e-06, Final residual = 8.08286e-09, No Iterations 8
smoothSolver:  Solving for Uy, Initial residual = 7.39102e-06, Final residual = 4.21728e-08, No Iterations 8
GAMG:  Solving for p, Initial residual = 6.72479e-06, Final residual = 8.62398e-07, No Iterations 1
time step continuity errors : sum local = 2.66593e-07, global = -1.35248e-16, cumulative = 6.50953e-14
smoothSolver:  Solving for nuTilda, Initial residual = 5.69107e-07, Final residual = 9.84138e-09, No Iterations 6
ExecutionTime = 418.7 s  ClockTime = 419 s

forces wings output:
    sum of forces:
        pressure : (4.0941 23.2188 -1.10898e-20)
        viscous  : (0.0732517 -0.0127836 -3.70739e-21)
        porous   : (0 0 0)
    sum of moments:
        pressure : (-1.16094 0.204705 2.51558)
        viscous  : (0.000639179 0.00366258 -6.85297e-05)
        porous   : (0 0 0)

End

