/*---------------------------------------------------------------------------*\
| =========                 |                                                 |
| \\      /  F ield         | OpenFOAM: The Open Source CFD Toolbox           |
|  \\    /   O peration     | Version:  2.3.0                                 |
|   \\  /    A nd           | Web:      www.OpenFOAM.org                      |
|    \\/     M anipulation  |                                                 |
\*---------------------------------------------------------------------------*/
Build  : 2.3.0-f5222ca19ce6
Exec   : simpleFoam -case Runs/first_arc_300_28/case
Date   : Jan 12 2015
Time   : 02:03:25
Host   : "lordvon-XPS-8300"
PID    : 10509
Case   : Runs/first_arc_300_28/case
nProcs : 1
sigFpe : Enabling floating point exception trapping (FOAM_SIGFPE).
fileModificationChecking : Monitoring run-time modified files using timeStampMaster
allowSystemOperations : Disallowing user-supplied system call operations

// * * * * * * * * * * * * * * * * * * * * * * * * * * * * * * * * * * * * * //
Create time

Create mesh for time = 0

Reading field p

Reading field U

Reading/calculating face flux field phi

Selecting incompressible transport model Newtonian
Selecting RAS turbulence model SpalartAllmaras
SpalartAllmarasCoeffs
{
    sigmaNut        0.66666;
    kappa           0.41;
    Cb1             0.1355;
    Cb2             0.622;
    Cw2             0.3;
    Cw3             2;
    Cv1             7.1;
    Cv2             5;
}

    Employing Ashford correction
No finite volume options present


SIMPLE: convergence criteria
    field p	 tolerance 1e-12
    field U	 tolerance 1e-12
    field nuTilda	 tolerance 1e-12


Starting time loop

forces wings:
    Not including porosity effects

Time = 1

smoothSolver:  Solving for Ux, Initial residual = 1, Final residual = 0.00183899, No Iterations 6
smoothSolver:  Solving for Uy, Initial residual = 1, Final residual = 0.00749207, No Iterations 4
GAMG:  Solving for p, Initial residual = 1, Final residual = 0.00859876, No Iterations 12
time step continuity errors : sum local = 0.00124425, global = 5.5961e-16, cumulative = 5.5961e-16
smoothSolver:  Solving for nuTilda, Initial residual = 1, Final residual = 0.00379478, No Iterations 4
ExecutionTime = 0.36 s  ClockTime = 0 s

Time = 2

smoothSolver:  Solving for Ux, Initial residual = 0.634223, Final residual = 0.00351809, No Iterations 8
smoothSolver:  Solving for Uy, Initial residual = 0.668271, Final residual = 0.0037806, No Iterations 8
GAMG:  Solving for p, Initial residual = 0.824013, Final residual = 0.00668327, No Iterations 7
time step continuity errors : sum local = 0.002584, global = 4.88695e-17, cumulative = 6.0848e-16
smoothSolver:  Solving for nuTilda, Initial residual = 0.18364, Final residual = 0.000659791, No Iterations 6
ExecutionTime = 0.45 s  ClockTime = 0 s

Time = 3

smoothSolver:  Solving for Ux, Initial residual = 0.21619, Final residual = 0.00118473, No Iterations 8
smoothSolver:  Solving for Uy, Initial residual = 0.232129, Final residual = 0.00129826, No Iterations 8
GAMG:  Solving for p, Initial residual = 0.674332, Final residual = 0.00595526, No Iterations 9
time step continuity errors : sum local = 0.00324458, global = -2.03831e-16, cumulative = 4.04649e-16
smoothSolver:  Solving for nuTilda, Initial residual = 0.09227, Final residual = 0.00077474, No Iterations 6
ExecutionTime = 0.55 s  ClockTime = 0 s

Time = 4

smoothSolver:  Solving for Ux, Initial residual = 0.069037, Final residual = 0.000348873, No Iterations 8
smoothSolver:  Solving for Uy, Initial residual = 0.0763571, Final residual = 0.000405975, No Iterations 8
GAMG:  Solving for p, Initial residual = 0.581566, Final residual = 0.00576185, No Iterations 7
time step continuity errors : sum local = 0.00279318, global = -2.14735e-17, cumulative = 3.83176e-16
smoothSolver:  Solving for nuTilda, Initial residual = 0.0694929, Final residual = 0.000184729, No Iterations 8
ExecutionTime = 0.64 s  ClockTime = 0 s

Time = 5

smoothSolver:  Solving for Ux, Initial residual = 0.214356, Final residual = 0.00116009, No Iterations 8
smoothSolver:  Solving for Uy, Initial residual = 0.229682, Final residual = 0.0012572, No Iterations 8
GAMG:  Solving for p, Initial residual = 0.56498, Final residual = 0.00538394, No Iterations 6
time step continuity errors : sum local = 0.00264217, global = 1.51304e-16, cumulative = 5.3448e-16
smoothSolver:  Solving for nuTilda, Initial residual = 0.0571249, Final residual = 0.000170206, No Iterations 8
ExecutionTime = 0.73 s  ClockTime = 1 s

forces wings output:
    sum of forces:
        pressure : (-1615.77 -2787.07 -1.59346e-17)
        viscous  : (0.441071 -0.145052 -3.74923e-20)
        porous   : (0 0 0)
    sum of moments:
        pressure : (139.353 -80.7883 -1025.39)
        viscous  : (0.00725261 0.0220536 -0.0170092)
        porous   : (0 0 0)

Time = 6

smoothSolver:  Solving for Ux, Initial residual = 0.184615, Final residual = 0.000982889, No Iterations 8
smoothSolver:  Solving for Uy, Initial residual = 0.205829, Final residual = 0.00112417, No Iterations 8
GAMG:  Solving for p, Initial residual = 0.469255, Final residual = 0.00365172, No Iterations 9
time step continuity errors : sum local = 0.00177287, global = -1.59359e-16, cumulative = 3.75121e-16
smoothSolver:  Solving for nuTilda, Initial residual = 0.0476195, Final residual = 0.000150522, No Iterations 8
ExecutionTime = 0.83 s  ClockTime = 1 s

Time = 7

smoothSolver:  Solving for Ux, Initial residual = 0.160412, Final residual = 0.000815821, No Iterations 8
smoothSolver:  Solving for Uy, Initial residual = 0.182896, Final residual = 0.000967856, No Iterations 8
GAMG:  Solving for p, Initial residual = 0.360498, Final residual = 0.00357737, No Iterations 6
time step continuity errors : sum local = 0.00162093, global = -6.91953e-17, cumulative = 3.05926e-16
smoothSolver:  Solving for nuTilda, Initial residual = 0.0398504, Final residual = 0.000130191, No Iterations 8
ExecutionTime = 0.92 s  ClockTime = 1 s

Time = 8

smoothSolver:  Solving for Ux, Initial residual = 0.160066, Final residual = 0.0008403, No Iterations 8
smoothSolver:  Solving for Uy, Initial residual = 0.176093, Final residual = 0.000943499, No Iterations 8
GAMG:  Solving for p, Initial residual = 0.422365, Final residual = 0.00400761, No Iterations 6
time step continuity errors : sum local = 0.00192546, global = -4.88311e-17, cumulative = 2.57095e-16
smoothSolver:  Solving for nuTilda, Initial residual = 0.0336652, Final residual = 0.000112696, No Iterations 8
ExecutionTime = 1.01 s  ClockTime = 1 s

Time = 9

smoothSolver:  Solving for Ux, Initial residual = 0.0442171, Final residual = 0.00021769, No Iterations 8
smoothSolver:  Solving for Uy, Initial residual = 0.0430994, Final residual = 0.000225191, No Iterations 8
GAMG:  Solving for p, Initial residual = 0.333188, Final residual = 0.00297636, No Iterations 8
time step continuity errors : sum local = 0.00141136, global = 1.84325e-16, cumulative = 4.41419e-16
smoothSolver:  Solving for nuTilda, Initial residual = 0.0290157, Final residual = 9.97219e-05, No Iterations 8
ExecutionTime = 1.11 s  ClockTime = 1 s

Time = 10

smoothSolver:  Solving for Ux, Initial residual = 0.0667034, Final residual = 0.000338556, No Iterations 8
smoothSolver:  Solving for Uy, Initial residual = 0.0762527, Final residual = 0.000397958, No Iterations 8
GAMG:  Solving for p, Initial residual = 0.275622, Final residual = 0.00263134, No Iterations 5
time step continuity errors : sum local = 0.00116558, global = -2.09919e-16, cumulative = 2.315e-16
smoothSolver:  Solving for nuTilda, Initial residual = 0.0253018, Final residual = 8.97279e-05, No Iterations 8
ExecutionTime = 1.19 s  ClockTime = 1 s

forces wings output:
    sum of forces:
        pressure : (-1025.63 -1757.56 -1.03506e-17)
        viscous  : (0.349181 -0.242723 -6.8121e-20)
        porous   : (0 0 0)
    sum of moments:
        pressure : (87.8781 -51.2816 -658.464)
        viscous  : (0.0121362 0.0174591 -0.0540696)
        porous   : (0 0 0)

Time = 11

smoothSolver:  Solving for Ux, Initial residual = 0.0861965, Final residual = 0.000440684, No Iterations 8
smoothSolver:  Solving for Uy, Initial residual = 0.100568, Final residual = 0.000527194, No Iterations 8
GAMG:  Solving for p, Initial residual = 0.301767, Final residual = 0.0024937, No Iterations 7
time step continuity errors : sum local = 0.00114437, global = 4.80972e-17, cumulative = 2.79597e-16
smoothSolver:  Solving for nuTilda, Initial residual = 0.022439, Final residual = 8.1723e-05, No Iterations 8
ExecutionTime = 1.29 s  ClockTime = 1 s

Time = 12

smoothSolver:  Solving for Ux, Initial residual = 0.0247017, Final residual = 9.86498e-05, No Iterations 8
smoothSolver:  Solving for Uy, Initial residual = 0.0229673, Final residual = 0.00010416, No Iterations 8
GAMG:  Solving for p, Initial residual = 0.230721, Final residual = 0.00216771, No Iterations 7
time step continuity errors : sum local = 0.000930224, global = 9.58899e-17, cumulative = 3.75487e-16
smoothSolver:  Solving for nuTilda, Initial residual = 0.0200644, Final residual = 7.4744e-05, No Iterations 8
ExecutionTime = 1.38 s  ClockTime = 1 s

Time = 13

smoothSolver:  Solving for Ux, Initial residual = 0.0611557, Final residual = 0.000299111, No Iterations 8
smoothSolver:  Solving for Uy, Initial residual = 0.0671267, Final residual = 0.000343862, No Iterations 8
GAMG:  Solving for p, Initial residual = 0.205878, Final residual = 0.00143229, No Iterations 6
time step continuity errors : sum local = 0.000601032, global = -2.43238e-16, cumulative = 1.32249e-16
smoothSolver:  Solving for nuTilda, Initial residual = 0.0179994, Final residual = 6.82455e-05, No Iterations 8
ExecutionTime = 1.47 s  ClockTime = 1 s

Time = 14

smoothSolver:  Solving for Ux, Initial residual = 0.0457332, Final residual = 0.000223269, No Iterations 8
smoothSolver:  Solving for Uy, Initial residual = 0.0470773, Final residual = 0.000241662, No Iterations 8
GAMG:  Solving for p, Initial residual = 0.220578, Final residual = 0.00170668, No Iterations 6
time step continuity errors : sum local = 0.000741423, global = 1.1004e-16, cumulative = 2.42289e-16
smoothSolver:  Solving for nuTilda, Initial residual = 0.0161798, Final residual = 6.25419e-05, No Iterations 8
ExecutionTime = 1.56 s  ClockTime = 1 s

Time = 15

smoothSolver:  Solving for Ux, Initial residual = 0.017668, Final residual = 7.50097e-05, No Iterations 8
smoothSolver:  Solving for Uy, Initial residual = 0.013965, Final residual = 6.35263e-05, No Iterations 8
GAMG:  Solving for p, Initial residual = 0.163177, Final residual = 0.00142896, No Iterations 6
time step continuity errors : sum local = 0.000606067, global = 1.67726e-17, cumulative = 2.59062e-16
smoothSolver:  Solving for nuTilda, Initial residual = 0.0146275, Final residual = 5.7934e-05, No Iterations 8
ExecutionTime = 1.65 s  ClockTime = 1 s

forces wings output:
    sum of forces:
        pressure : (-374.045 -631.716 -3.73978e-18)
        viscous  : (0.340299 -0.227751 -4.34263e-20)
        porous   : (0 0 0)
    sum of moments:
        pressure : (31.5858 -18.7022 -246.209)
        viscous  : (0.0113875 0.0170149 -0.0498683)
        porous   : (0 0 0)

Time = 16

smoothSolver:  Solving for Ux, Initial residual = 0.0333146, Final residual = 0.000163147, No Iterations 8
smoothSolver:  Solving for Uy, Initial residual = 0.0375102, Final residual = 0.00019054, No Iterations 8
GAMG:  Solving for p, Initial residual = 0.160597, Final residual = 0.00106765, No Iterations 6
time step continuity errors : sum local = 0.000447872, global = 6.31338e-17, cumulative = 3.22196e-16
smoothSolver:  Solving for nuTilda, Initial residual = 0.0133068, Final residual = 5.41346e-05, No Iterations 8
ExecutionTime = 1.74 s  ClockTime = 2 s

Time = 17

smoothSolver:  Solving for Ux, Initial residual = 0.0237266, Final residual = 0.000112252, No Iterations 8
smoothSolver:  Solving for Uy, Initial residual = 0.0270192, Final residual = 0.000135773, No Iterations 8
GAMG:  Solving for p, Initial residual = 0.157179, Final residual = 0.00109166, No Iterations 6
time step continuity errors : sum local = 0.000463028, global = -4.63754e-17, cumulative = 2.7582e-16
smoothSolver:  Solving for nuTilda, Initial residual = 0.0121742, Final residual = 5.07973e-05, No Iterations 8
ExecutionTime = 1.83 s  ClockTime = 2 s

Time = 18

smoothSolver:  Solving for Ux, Initial residual = 0.0153285, Final residual = 6.45158e-05, No Iterations 8
smoothSolver:  Solving for Uy, Initial residual = 0.0155778, Final residual = 7.36605e-05, No Iterations 8
GAMG:  Solving for p, Initial residual = 0.116226, Final residual = 0.00102691, No Iterations 5
time step continuity errors : sum local = 0.000424234, global = -2.64924e-16, cumulative = 1.08958e-17
smoothSolver:  Solving for nuTilda, Initial residual = 0.0111971, Final residual = 4.77006e-05, No Iterations 8
ExecutionTime = 1.92 s  ClockTime = 2 s

Time = 19

smoothSolver:  Solving for Ux, Initial residual = 0.0230973, Final residual = 0.000106833, No Iterations 8
smoothSolver:  Solving for Uy, Initial residual = 0.0238236, Final residual = 0.000118362, No Iterations 8
GAMG:  Solving for p, Initial residual = 0.119731, Final residual = 0.000673244, No Iterations 6
time step continuity errors : sum local = 0.000277862, global = -2.11035e-16, cumulative = -2.00139e-16
smoothSolver:  Solving for nuTilda, Initial residual = 0.0103479, Final residual = 4.47264e-05, No Iterations 8
ExecutionTime = 2.01 s  ClockTime = 2 s

Time = 20

smoothSolver:  Solving for Ux, Initial residual = 0.0133519, Final residual = 5.77567e-05, No Iterations 8
smoothSolver:  Solving for Uy, Initial residual = 0.0113925, Final residual = 5.55849e-05, No Iterations 8
GAMG:  Solving for p, Initial residual = 0.109812, Final residual = 0.000702232, No Iterations 6
time step continuity errors : sum local = 0.000293066, global = -1.26871e-16, cumulative = -3.2701e-16
smoothSolver:  Solving for nuTilda, Initial residual = 0.00960618, Final residual = 4.20043e-05, No Iterations 8
ExecutionTime = 2.09 s  ClockTime = 2 s

forces wings output:
    sum of forces:
        pressure : (-66.833 -103.796 -6.11312e-19)
        viscous  : (0.343465 -0.199782 -1.74106e-21)
        porous   : (0 0 0)
    sum of moments:
        pressure : (5.18982 -3.34165 -49.9394)
        viscous  : (0.00998912 0.0171733 -0.0404218)
        porous   : (0 0 0)

Time = 21

smoothSolver:  Solving for Ux, Initial residual = 0.0122874, Final residual = 5.39974e-05, No Iterations 8
smoothSolver:  Solving for Uy, Initial residual = 0.0110615, Final residual = 5.26969e-05, No Iterations 8
GAMG:  Solving for p, Initial residual = 0.0818545, Final residual = 0.000510598, No Iterations 5
time step continuity errors : sum local = 0.000214067, global = -3.31282e-17, cumulative = -3.60138e-16
smoothSolver:  Solving for nuTilda, Initial residual = 0.00896951, Final residual = 3.96103e-05, No Iterations 8
ExecutionTime = 2.18 s  ClockTime = 2 s

Time = 22

smoothSolver:  Solving for Ux, Initial residual = 0.0132744, Final residual = 6.15746e-05, No Iterations 8
smoothSolver:  Solving for Uy, Initial residual = 0.0146251, Final residual = 7.1198e-05, No Iterations 8
GAMG:  Solving for p, Initial residual = 0.0840082, Final residual = 0.000827855, No Iterations 5
time step continuity errors : sum local = 0.000352412, global = -5.8122e-17, cumulative = -4.1826e-16
smoothSolver:  Solving for nuTilda, Initial residual = 0.00841447, Final residual = 3.74926e-05, No Iterations 8
ExecutionTime = 2.27 s  ClockTime = 2 s

Time = 23

smoothSolver:  Solving for Ux, Initial residual = 0.00668367, Final residual = 2.76009e-05, No Iterations 8
smoothSolver:  Solving for Uy, Initial residual = 0.00698031, Final residual = 3.22048e-05, No Iterations 8
GAMG:  Solving for p, Initial residual = 0.074267, Final residual = 0.000692648, No Iterations 5
time step continuity errors : sum local = 0.000293987, global = -2.81175e-16, cumulative = -6.99436e-16
smoothSolver:  Solving for nuTilda, Initial residual = 0.00789867, Final residual = 3.55432e-05, No Iterations 8
ExecutionTime = 2.35 s  ClockTime = 2 s

Time = 24

smoothSolver:  Solving for Ux, Initial residual = 0.00889363, Final residual = 3.83854e-05, No Iterations 8
smoothSolver:  Solving for Uy, Initial residual = 0.00880755, Final residual = 4.16428e-05, No Iterations 8
GAMG:  Solving for p, Initial residual = 0.057566, Final residual = 0.000364037, No Iterations 6
time step continuity errors : sum local = 0.000153983, global = 2.00886e-16, cumulative = -4.9855e-16
smoothSolver:  Solving for nuTilda, Initial residual = 0.00743336, Final residual = 3.37273e-05, No Iterations 8
ExecutionTime = 2.44 s  ClockTime = 2 s

Time = 25

smoothSolver:  Solving for Ux, Initial residual = 0.00916667, Final residual = 3.99502e-05, No Iterations 8
smoothSolver:  Solving for Uy, Initial residual = 0.00831568, Final residual = 4.02296e-05, No Iterations 8
GAMG:  Solving for p, Initial residual = 0.0582445, Final residual = 0.00053325, No Iterations 5
time step continuity errors : sum local = 0.000227014, global = 1.98497e-16, cumulative = -3.00052e-16
smoothSolver:  Solving for nuTilda, Initial residual = 0.00700418, Final residual = 3.20199e-05, No Iterations 8
ExecutionTime = 2.53 s  ClockTime = 2 s

forces wings output:
    sum of forces:
        pressure : (29.2 60.0344 3.01284e-19)
        viscous  : (0.339276 -0.181408 1.54003e-20)
        porous   : (0 0 0)
    sum of moments:
        pressure : (-3.00172 1.46 12.1961)
        viscous  : (0.00907039 0.0169638 -0.0345676)
        porous   : (0 0 0)

Time = 26

smoothSolver:  Solving for Ux, Initial residual = 0.00577051, Final residual = 2.32595e-05, No Iterations 8
smoothSolver:  Solving for Uy, Initial residual = 0.00384562, Final residual = 1.82733e-05, No Iterations 8
GAMG:  Solving for p, Initial residual = 0.0508121, Final residual = 0.0003531, No Iterations 5
time step continuity errors : sum local = 0.000150034, global = 1.31667e-16, cumulative = -1.68385e-16
smoothSolver:  Solving for nuTilda, Initial residual = 0.00660635, Final residual = 3.04226e-05, No Iterations 8
ExecutionTime = 2.61 s  ClockTime = 2 s

Time = 27

smoothSolver:  Solving for Ux, Initial residual = 0.00660828, Final residual = 2.88992e-05, No Iterations 8
smoothSolver:  Solving for Uy, Initial residual = 0.00573103, Final residual = 2.81386e-05, No Iterations 8
GAMG:  Solving for p, Initial residual = 0.0397105, Final residual = 0.000286064, No Iterations 6
time step continuity errors : sum local = 0.000122226, global = -1.48549e-17, cumulative = -1.8324e-16
smoothSolver:  Solving for nuTilda, Initial residual = 0.0062431, Final residual = 2.8979e-05, No Iterations 8
ExecutionTime = 2.7 s  ClockTime = 3 s

Time = 28

smoothSolver:  Solving for Ux, Initial residual = 0.0055169, Final residual = 2.4334e-05, No Iterations 8
smoothSolver:  Solving for Uy, Initial residual = 0.00548204, Final residual = 2.69402e-05, No Iterations 8
GAMG:  Solving for p, Initial residual = 0.0387077, Final residual = 0.000272692, No Iterations 6
time step continuity errors : sum local = 0.000117289, global = 4.84312e-17, cumulative = -1.34809e-16
smoothSolver:  Solving for nuTilda, Initial residual = 0.00592329, Final residual = 2.76567e-05, No Iterations 8
ExecutionTime = 2.79 s  ClockTime = 3 s

Time = 29

smoothSolver:  Solving for Ux, Initial residual = 0.00413231, Final residual = 1.69404e-05, No Iterations 8
smoothSolver:  Solving for Uy, Initial residual = 0.00369521, Final residual = 1.76207e-05, No Iterations 8
GAMG:  Solving for p, Initial residual = 0.0339231, Final residual = 0.000198386, No Iterations 5
time step continuity errors : sum local = 8.43859e-05, global = -1.53762e-17, cumulative = -1.50185e-16
smoothSolver:  Solving for nuTilda, Initial residual = 0.00564414, Final residual = 2.6428e-05, No Iterations 8
ExecutionTime = 2.88 s  ClockTime = 3 s

Time = 30

smoothSolver:  Solving for Ux, Initial residual = 0.00514872, Final residual = 2.18262e-05, No Iterations 8
smoothSolver:  Solving for Uy, Initial residual = 0.00431182, Final residual = 2.0775e-05, No Iterations 8
GAMG:  Solving for p, Initial residual = 0.0274671, Final residual = 0.00024784, No Iterations 5
time step continuity errors : sum local = 0.000105474, global = -2.6762e-19, cumulative = -1.50453e-16
smoothSolver:  Solving for nuTilda, Initial residual = 0.00540151, Final residual = 2.52794e-05, No Iterations 8
ExecutionTime = 2.97 s  ClockTime = 3 s

forces wings output:
    sum of forces:
        pressure : (35.3394 70.3863 1.99526e-19)
        viscous  : (0.329461 -0.17156 2.44161e-20)
        porous   : (0 0 0)
    sum of moments:
        pressure : (-3.51932 1.76697 16.2483)
        viscous  : (0.00857801 0.0164731 -0.0319325)
        porous   : (0 0 0)

Time = 31

smoothSolver:  Solving for Ux, Initial residual = 0.00466599, Final residual = 1.93793e-05, No Iterations 8
smoothSolver:  Solving for Uy, Initial residual = 0.00334808, Final residual = 1.62737e-05, No Iterations 8
GAMG:  Solving for p, Initial residual = 0.0254873, Final residual = 0.000190101, No Iterations 5
time step continuity errors : sum local = 8.13382e-05, global = -3.41371e-17, cumulative = -1.8459e-16
smoothSolver:  Solving for nuTilda, Initial residual = 0.00516895, Final residual = 2.42103e-05, No Iterations 8
ExecutionTime = 3.06 s  ClockTime = 3 s

Time = 32

smoothSolver:  Solving for Ux, Initial residual = 0.00409943, Final residual = 1.67864e-05, No Iterations 8
smoothSolver:  Solving for Uy, Initial residual = 0.00264144, Final residual = 1.30347e-05, No Iterations 8
GAMG:  Solving for p, Initial residual = 0.0236599, Final residual = 0.000167646, No Iterations 5
time step continuity errors : sum local = 7.22983e-05, global = -1.36847e-16, cumulative = -3.21437e-16
smoothSolver:  Solving for nuTilda, Initial residual = 0.00494998, Final residual = 2.31948e-05, No Iterations 8
ExecutionTime = 3.14 s  ClockTime = 3 s

Time = 33

smoothSolver:  Solving for Ux, Initial residual = 0.00407542, Final residual = 1.72295e-05, No Iterations 8
smoothSolver:  Solving for Uy, Initial residual = 0.00313806, Final residual = 1.59598e-05, No Iterations 8
GAMG:  Solving for p, Initial residual = 0.0198068, Final residual = 0.000176862, No Iterations 5
time step continuity errors : sum local = 7.52577e-05, global = -1.2325e-16, cumulative = -4.44688e-16
smoothSolver:  Solving for nuTilda, Initial residual = 0.00475768, Final residual = 2.22581e-05, No Iterations 8
ExecutionTime = 3.23 s  ClockTime = 3 s

Time = 34

smoothSolver:  Solving for Ux, Initial residual = 0.00353154, Final residual = 1.48266e-05, No Iterations 8
smoothSolver:  Solving for Uy, Initial residual = 0.0027237, Final residual = 1.395e-05, No Iterations 8
GAMG:  Solving for p, Initial residual = 0.0176598, Final residual = 0.000136993, No Iterations 5
time step continuity errors : sum local = 5.83183e-05, global = 8.72723e-17, cumulative = -3.57415e-16
smoothSolver:  Solving for nuTilda, Initial residual = 0.00458185, Final residual = 2.13683e-05, No Iterations 8
ExecutionTime = 3.31 s  ClockTime = 3 s

Time = 35

smoothSolver:  Solving for Ux, Initial residual = 0.00343125, Final residual = 1.41889e-05, No Iterations 8
smoothSolver:  Solving for Uy, Initial residual = 0.00255797, Final residual = 1.29934e-05, No Iterations 8
GAMG:  Solving for p, Initial residual = 0.017608, Final residual = 0.000126729, No Iterations 5
time step continuity errors : sum local = 5.45408e-05, global = 1.34725e-16, cumulative = -2.22691e-16
smoothSolver:  Solving for nuTilda, Initial residual = 0.0044256, Final residual = 2.05486e-05, No Iterations 8
ExecutionTime = 3.4 s  ClockTime = 3 s

forces wings output:
    sum of forces:
        pressure : (25.7563 54.4463 -1.07485e-20)
        viscous  : (0.316594 -0.165266 2.7441e-20)
        porous   : (0 0 0)
    sum of moments:
        pressure : (-2.72231 1.28781 9.77998)
        viscous  : (0.0082633 0.0158297 -0.0306565)
        porous   : (0 0 0)

Time = 36

smoothSolver:  Solving for Ux, Initial residual = 0.0035909, Final residual = 1.49078e-05, No Iterations 8
smoothSolver:  Solving for Uy, Initial residual = 0.00244809, Final residual = 1.26384e-05, No Iterations 8
GAMG:  Solving for p, Initial residual = 0.0159192, Final residual = 0.00010982, No Iterations 5
time step continuity errors : sum local = 4.66814e-05, global = -1.77735e-16, cumulative = -4.00425e-16
smoothSolver:  Solving for nuTilda, Initial residual = 0.00427753, Final residual = 1.97634e-05, No Iterations 8
ExecutionTime = 3.49 s  ClockTime = 3 s

Time = 37

smoothSolver:  Solving for Ux, Initial residual = 0.00341021, Final residual = 1.41232e-05, No Iterations 8
smoothSolver:  Solving for Uy, Initial residual = 0.00202631, Final residual = 1.06285e-05, No Iterations 8
GAMG:  Solving for p, Initial residual = 0.0138989, Final residual = 6.20471e-05, No Iterations 5
time step continuity errors : sum local = 2.63975e-05, global = 1.66126e-16, cumulative = -2.343e-16
smoothSolver:  Solving for nuTilda, Initial residual = 0.00413844, Final residual = 1.90247e-05, No Iterations 8
ExecutionTime = 3.57 s  ClockTime = 3 s

Time = 38

smoothSolver:  Solving for Ux, Initial residual = 0.00329941, Final residual = 1.38004e-05, No Iterations 8
smoothSolver:  Solving for Uy, Initial residual = 0.00207651, Final residual = 1.08964e-05, No Iterations 8
GAMG:  Solving for p, Initial residual = 0.0138885, Final residual = 0.000105857, No Iterations 4
time step continuity errors : sum local = 4.49754e-05, global = 2.02154e-16, cumulative = -3.21459e-17
smoothSolver:  Solving for nuTilda, Initial residual = 0.00400126, Final residual = 1.83037e-05, No Iterations 8
ExecutionTime = 3.66 s  ClockTime = 3 s

Time = 39

smoothSolver:  Solving for Ux, Initial residual = 0.00313558, Final residual = 1.3273e-05, No Iterations 8
smoothSolver:  Solving for Uy, Initial residual = 0.00210526, Final residual = 1.12196e-05, No Iterations 8
GAMG:  Solving for p, Initial residual = 0.0132173, Final residual = 9.40149e-05, No Iterations 5
time step continuity errors : sum local = 3.99233e-05, global = -6.82845e-17, cumulative = -1.0043e-16
smoothSolver:  Solving for nuTilda, Initial residual = 0.00386412, Final residual = 1.76142e-05, No Iterations 8
ExecutionTime = 3.74 s  ClockTime = 4 s

Time = 40

smoothSolver:  Solving for Ux, Initial residual = 0.00296783, Final residual = 1.26047e-05, No Iterations 8
smoothSolver:  Solving for Uy, Initial residual = 0.00199759, Final residual = 1.0761e-05, No Iterations 8
GAMG:  Solving for p, Initial residual = 0.0114617, Final residual = 0.000109911, No Iterations 4
time step continuity errors : sum local = 4.66135e-05, global = 1.36225e-16, cumulative = 3.57951e-17
smoothSolver:  Solving for nuTilda, Initial residual = 0.00373609, Final residual = 1.69591e-05, No Iterations 8
ExecutionTime = 3.82 s  ClockTime = 4 s

forces wings output:
    sum of forces:
        pressure : (19.4932 44.3767 -1.22226e-19)
        viscous  : (0.302904 -0.159815 3.10231e-20)
        porous   : (0 0 0)
    sum of moments:
        pressure : (-2.21883 0.974661 5.32454)
        viscous  : (0.00799075 0.0151452 -0.0297102)
        porous   : (0 0 0)

Time = 41

smoothSolver:  Solving for Ux, Initial residual = 0.00294682, Final residual = 1.25219e-05, No Iterations 8
smoothSolver:  Solving for Uy, Initial residual = 0.00193666, Final residual = 1.04438e-05, No Iterations 8
GAMG:  Solving for p, Initial residual = 0.0110701, Final residual = 9.68931e-05, No Iterations 4
time step continuity errors : sum local = 4.10872e-05, global = 3.32162e-16, cumulative = 3.67957e-16
smoothSolver:  Solving for nuTilda, Initial residual = 0.00361359, Final residual = 1.63383e-05, No Iterations 8
ExecutionTime = 3.91 s  ClockTime = 4 s

Time = 42

smoothSolver:  Solving for Ux, Initial residual = 0.00295527, Final residual = 1.2576e-05, No Iterations 8
smoothSolver:  Solving for Uy, Initial residual = 0.00179569, Final residual = 9.81975e-06, No Iterations 8
GAMG:  Solving for p, Initial residual = 0.0106945, Final residual = 9.95989e-05, No Iterations 4
time step continuity errors : sum local = 4.22267e-05, global = 2.90897e-16, cumulative = 6.58854e-16
smoothSolver:  Solving for nuTilda, Initial residual = 0.0034943, Final residual = 1.57513e-05, No Iterations 8
ExecutionTime = 3.99 s  ClockTime = 4 s

Time = 43

smoothSolver:  Solving for Ux, Initial residual = 0.00292453, Final residual = 1.24812e-05, No Iterations 8
smoothSolver:  Solving for Uy, Initial residual = 0.00172888, Final residual = 9.51809e-06, No Iterations 8
GAMG:  Solving for p, Initial residual = 0.00976151, Final residual = 8.33375e-05, No Iterations 4
time step continuity errors : sum local = 3.5516e-05, global = 1.01435e-16, cumulative = 7.60289e-16
smoothSolver:  Solving for nuTilda, Initial residual = 0.00337922, Final residual = 1.5208e-05, No Iterations 8
ExecutionTime = 4.08 s  ClockTime = 4 s

Time = 44

smoothSolver:  Solving for Ux, Initial residual = 0.00284108, Final residual = 1.21791e-05, No Iterations 8
smoothSolver:  Solving for Uy, Initial residual = 0.00172857, Final residual = 9.56109e-06, No Iterations 8
GAMG:  Solving for p, Initial residual = 0.00943592, Final residual = 6.03284e-05, No Iterations 4
time step continuity errors : sum local = 2.55144e-05, global = -1.25576e-16, cumulative = 6.34712e-16
smoothSolver:  Solving for nuTilda, Initial residual = 0.00326829, Final residual = 1.46972e-05, No Iterations 8
ExecutionTime = 4.16 s  ClockTime = 4 s

Time = 45

smoothSolver:  Solving for Ux, Initial residual = 0.00273758, Final residual = 1.18054e-05, No Iterations 8
smoothSolver:  Solving for Uy, Initial residual = 0.00173235, Final residual = 9.60557e-06, No Iterations 8
GAMG:  Solving for p, Initial residual = 0.00921056, Final residual = 6.66292e-05, No Iterations 4
time step continuity errors : sum local = 2.8211e-05, global = 8.01992e-17, cumulative = 7.14912e-16
smoothSolver:  Solving for nuTilda, Initial residual = 0.00316274, Final residual = 1.42137e-05, No Iterations 8
ExecutionTime = 4.24 s  ClockTime = 4 s

forces wings output:
    sum of forces:
        pressure : (18.2509 42.7183 -1.61683e-19)
        viscous  : (0.28899 -0.154343 3.22653e-20)
        porous   : (0 0 0)
    sum of moments:
        pressure : (-2.13591 0.912543 4.21859)
        viscous  : (0.00771715 0.0144495 -0.0287754)
        porous   : (0 0 0)

Time = 46

smoothSolver:  Solving for Ux, Initial residual = 0.00266029, Final residual = 1.15119e-05, No Iterations 8
smoothSolver:  Solving for Uy, Initial residual = 0.00172126, Final residual = 9.55003e-06, No Iterations 8
GAMG:  Solving for p, Initial residual = 0.00857559, Final residual = 7.98467e-05, No Iterations 4
time step continuity errors : sum local = 3.3846e-05, global = -4.37755e-17, cumulative = 6.71136e-16
smoothSolver:  Solving for nuTilda, Initial residual = 0.00305711, Final residual = 1.3766e-05, No Iterations 8
ExecutionTime = 4.33 s  ClockTime = 4 s

Time = 47

smoothSolver:  Solving for Ux, Initial residual = 0.00262668, Final residual = 1.13799e-05, No Iterations 8
smoothSolver:  Solving for Uy, Initial residual = 0.00166822, Final residual = 9.28834e-06, No Iterations 8
GAMG:  Solving for p, Initial residual = 0.00812551, Final residual = 6.06347e-05, No Iterations 4
time step continuity errors : sum local = 2.55895e-05, global = -2.15662e-16, cumulative = 4.55474e-16
smoothSolver:  Solving for nuTilda, Initial residual = 0.00295453, Final residual = 1.33386e-05, No Iterations 8
ExecutionTime = 4.41 s  ClockTime = 4 s

Time = 48

smoothSolver:  Solving for Ux, Initial residual = 0.00261131, Final residual = 1.13286e-05, No Iterations 8
smoothSolver:  Solving for Uy, Initial residual = 0.0016081, Final residual = 9.00068e-06, No Iterations 8
GAMG:  Solving for p, Initial residual = 0.00775117, Final residual = 4.81507e-05, No Iterations 4
time step continuity errors : sum local = 2.03563e-05, global = 9.08178e-18, cumulative = 4.64556e-16
smoothSolver:  Solving for nuTilda, Initial residual = 0.00285898, Final residual = 1.29335e-05, No Iterations 8
ExecutionTime = 4.49 s  ClockTime = 4 s

Time = 49

smoothSolver:  Solving for Ux, Initial residual = 0.00257704, Final residual = 1.12106e-05, No Iterations 8
smoothSolver:  Solving for Uy, Initial residual = 0.00157906, Final residual = 8.87626e-06, No Iterations 8
GAMG:  Solving for p, Initial residual = 0.00736273, Final residual = 3.90579e-05, No Iterations 4
time step continuity errors : sum local = 1.65521e-05, global = 2.57245e-16, cumulative = 7.21801e-16
smoothSolver:  Solving for nuTilda, Initial residual = 0.00276785, Final residual = 1.25388e-05, No Iterations 8
ExecutionTime = 4.58 s  ClockTime = 4 s

Time = 50

smoothSolver:  Solving for Ux, Initial residual = 0.00251846, Final residual = 1.10017e-05, No Iterations 8
smoothSolver:  Solving for Uy, Initial residual = 0.00156554, Final residual = 8.83611e-06, No Iterations 8
GAMG:  Solving for p, Initial residual = 0.00707641, Final residual = 4.13838e-05, No Iterations 4
time step continuity errors : sum local = 1.74867e-05, global = 6.07726e-17, cumulative = 7.82574e-16
smoothSolver:  Solving for nuTilda, Initial residual = 0.00268083, Final residual = 1.21593e-05, No Iterations 8
ExecutionTime = 4.66 s  ClockTime = 4 s

forces wings output:
    sum of forces:
        pressure : (19.2635 44.5694 -1.96051e-19)
        viscous  : (0.275461 -0.148815 3.52188e-20)
        porous   : (0 0 0)
    sum of moments:
        pressure : (-2.22847 0.963177 4.7929)
        viscous  : (0.00744075 0.013773 -0.0277835)
        porous   : (0 0 0)

Time = 51

smoothSolver:  Solving for Ux, Initial residual = 0.0024535, Final residual = 1.07667e-05, No Iterations 8
smoothSolver:  Solving for Uy, Initial residual = 0.00155503, Final residual = 8.81794e-06, No Iterations 8
GAMG:  Solving for p, Initial residual = 0.0068013, Final residual = 3.3529e-05, No Iterations 4
time step continuity errors : sum local = 1.41717e-05, global = 7.32454e-17, cumulative = 8.55819e-16
smoothSolver:  Solving for nuTilda, Initial residual = 0.00259557, Final residual = 1.17987e-05, No Iterations 8
ExecutionTime = 4.75 s  ClockTime = 5 s

Time = 52

smoothSolver:  Solving for Ux, Initial residual = 0.00240039, Final residual = 1.05802e-05, No Iterations 8
smoothSolver:  Solving for Uy, Initial residual = 0.00153935, Final residual = 8.77152e-06, No Iterations 8
GAMG:  Solving for p, Initial residual = 0.00657273, Final residual = 3.93677e-05, No Iterations 4
time step continuity errors : sum local = 1.65938e-05, global = 6.37748e-17, cumulative = 9.19594e-16
smoothSolver:  Solving for nuTilda, Initial residual = 0.00251525, Final residual = 1.14548e-05, No Iterations 8
ExecutionTime = 4.83 s  ClockTime = 5 s

Time = 53

smoothSolver:  Solving for Ux, Initial residual = 0.00236068, Final residual = 1.04529e-05, No Iterations 8
smoothSolver:  Solving for Uy, Initial residual = 0.00151427, Final residual = 8.66679e-06, No Iterations 8
GAMG:  Solving for p, Initial residual = 0.00633532, Final residual = 4.45814e-05, No Iterations 4
time step continuity errors : sum local = 1.87653e-05, global = 1.4914e-16, cumulative = 1.06873e-15
smoothSolver:  Solving for nuTilda, Initial residual = 0.00243831, Final residual = 1.11243e-05, No Iterations 8
ExecutionTime = 4.91 s  ClockTime = 5 s

Time = 54

smoothSolver:  Solving for Ux, Initial residual = 0.00232829, Final residual = 1.03604e-05, No Iterations 8
smoothSolver:  Solving for Uy, Initial residual = 0.00148774, Final residual = 8.54612e-06, No Iterations 8
GAMG:  Solving for p, Initial residual = 0.00604698, Final residual = 3.49985e-05, No Iterations 4
time step continuity errors : sum local = 1.47488e-05, global = -1.26882e-16, cumulative = 9.41852e-16
smoothSolver:  Solving for nuTilda, Initial residual = 0.00236426, Final residual = 1.08024e-05, No Iterations 8
ExecutionTime = 5 s  ClockTime = 5 s

Time = 55

smoothSolver:  Solving for Ux, Initial residual = 0.00229644, Final residual = 1.0271e-05, No Iterations 8
smoothSolver:  Solving for Uy, Initial residual = 0.00146961, Final residual = 8.46535e-06, No Iterations 8
GAMG:  Solving for p, Initial residual = 0.00579454, Final residual = 5.76721e-05, No Iterations 3
time step continuity errors : sum local = 2.4329e-05, global = -5.95087e-17, cumulative = 8.82343e-16
smoothSolver:  Solving for nuTilda, Initial residual = 0.00229196, Final residual = 1.04865e-05, No Iterations 8
ExecutionTime = 5.08 s  ClockTime = 5 s

forces wings output:
    sum of forces:
        pressure : (19.67 45.4163 -2.38043e-19)
        viscous  : (0.262222 -0.143324 3.69285e-20)
        porous   : (0 0 0)
    sum of moments:
        pressure : (-2.27082 0.983501 4.95531)
        viscous  : (0.00716619 0.0131111 -0.0267837)
        porous   : (0 0 0)

Time = 56

smoothSolver:  Solving for Ux, Initial residual = 0.00225985, Final residual = 1.01596e-05, No Iterations 8
smoothSolver:  Solving for Uy, Initial residual = 0.00145764, Final residual = 8.42947e-06, No Iterations 8
GAMG:  Solving for p, Initial residual = 0.00560885, Final residual = 2.17872e-05, No Iterations 4
time step continuity errors : sum local = 9.18769e-06, global = -6.99861e-17, cumulative = 8.12357e-16
smoothSolver:  Solving for nuTilda, Initial residual = 0.00222531, Final residual = 1.0182e-05, No Iterations 8
ExecutionTime = 5.16 s  ClockTime = 5 s

Time = 57

smoothSolver:  Solving for Ux, Initial residual = 0.00222641, Final residual = 1.00559e-05, No Iterations 8
smoothSolver:  Solving for Uy, Initial residual = 0.00144774, Final residual = 8.4103e-06, No Iterations 8
GAMG:  Solving for p, Initial residual = 0.00543338, Final residual = 5.147e-05, No Iterations 3
time step continuity errors : sum local = 2.17098e-05, global = 1.46883e-16, cumulative = 9.59241e-16
smoothSolver:  Solving for nuTilda, Initial residual = 0.00216195, Final residual = 9.88946e-06, No Iterations 8
ExecutionTime = 5.24 s  ClockTime = 5 s

Time = 58

smoothSolver:  Solving for Ux, Initial residual = 0.00219328, Final residual = 9.95306e-06, No Iterations 8
smoothSolver:  Solving for Uy, Initial residual = 0.00143749, Final residual = 8.38815e-06, No Iterations 8
GAMG:  Solving for p, Initial residual = 0.0052718, Final residual = 2.12539e-05, No Iterations 4
time step continuity errors : sum local = 8.96789e-06, global = -2.4939e-16, cumulative = 7.09851e-16
smoothSolver:  Solving for nuTilda, Initial residual = 0.00210124, Final residual = 9.60397e-06, No Iterations 8
ExecutionTime = 5.32 s  ClockTime = 5 s

Time = 59

smoothSolver:  Solving for Ux, Initial residual = 0.00216327, Final residual = 9.86659e-06, No Iterations 8
smoothSolver:  Solving for Uy, Initial residual = 0.00142421, Final residual = 8.34951e-06, No Iterations 8
GAMG:  Solving for p, Initial residual = 0.00509698, Final residual = 2.64227e-05, No Iterations 4
time step continuity errors : sum local = 1.11232e-05, global = -1.12419e-16, cumulative = 5.97432e-16
smoothSolver:  Solving for nuTilda, Initial residual = 0.00204228, Final residual = 9.32803e-06, No Iterations 8
ExecutionTime = 5.41 s  ClockTime = 5 s

Time = 60

smoothSolver:  Solving for Ux, Initial residual = 0.00213395, Final residual = 9.78642e-06, No Iterations 8
smoothSolver:  Solving for Uy, Initial residual = 0.00141123, Final residual = 8.30659e-06, No Iterations 8
GAMG:  Solving for p, Initial residual = 0.00493247, Final residual = 2.90783e-05, No Iterations 4
time step continuity errors : sum local = 1.22422e-05, global = 4.83972e-17, cumulative = 6.4583e-16
smoothSolver:  Solving for nuTilda, Initial residual = 0.001985, Final residual = 9.06002e-06, No Iterations 8
ExecutionTime = 5.49 s  ClockTime = 5 s

forces wings output:
    sum of forces:
        pressure : (19.8224 46.0108 -2.70258e-19)
        viscous  : (0.249331 -0.137915 3.76496e-20)
        porous   : (0 0 0)
    sum of moments:
        pressure : (-2.30054 0.991118 4.83459)
        viscous  : (0.00689574 0.0124665 -0.0257951)
        porous   : (0 0 0)

Time = 61

smoothSolver:  Solving for Ux, Initial residual = 0.00210624, Final residual = 9.71172e-06, No Iterations 8
smoothSolver:  Solving for Uy, Initial residual = 0.00140071, Final residual = 8.27095e-06, No Iterations 8
GAMG:  Solving for p, Initial residual = 0.00478874, Final residual = 2.81396e-05, No Iterations 4
time step continuity errors : sum local = 1.18539e-05, global = 8.73491e-17, cumulative = 7.33179e-16
smoothSolver:  Solving for nuTilda, Initial residual = 0.00192936, Final residual = 8.80554e-06, No Iterations 8
ExecutionTime = 5.58 s  ClockTime = 5 s

Time = 62

smoothSolver:  Solving for Ux, Initial residual = 0.00208054, Final residual = 9.63979e-06, No Iterations 8
smoothSolver:  Solving for Uy, Initial residual = 0.00139081, Final residual = 8.2395e-06, No Iterations 8
GAMG:  Solving for p, Initial residual = 0.00467319, Final residual = 2.54881e-05, No Iterations 4
time step continuity errors : sum local = 1.07417e-05, global = 3.33434e-16, cumulative = 1.06661e-15
smoothSolver:  Solving for nuTilda, Initial residual = 0.00187681, Final residual = 8.56577e-06, No Iterations 8
ExecutionTime = 5.66 s  ClockTime = 5 s

Time = 63

smoothSolver:  Solving for Ux, Initial residual = 0.00205652, Final residual = 9.56938e-06, No Iterations 8
smoothSolver:  Solving for Uy, Initial residual = 0.00138111, Final residual = 8.21033e-06, No Iterations 8
GAMG:  Solving for p, Initial residual = 0.00456301, Final residual = 2.33457e-05, No Iterations 4
time step continuity errors : sum local = 9.84419e-06, global = 3.69425e-16, cumulative = 1.43604e-15
smoothSolver:  Solving for nuTilda, Initial residual = 0.00182555, Final residual = 8.33049e-06, No Iterations 8
ExecutionTime = 5.74 s  ClockTime = 6 s

Time = 64

smoothSolver:  Solving for Ux, Initial residual = 0.00203292, Final residual = 9.4986e-06, No Iterations 8
smoothSolver:  Solving for Uy, Initial residual = 0.00137149, Final residual = 8.18043e-06, No Iterations 8
GAMG:  Solving for p, Initial residual = 0.00444911, Final residual = 2.22025e-05, No Iterations 4
time step continuity errors : sum local = 9.36691e-06, global = -5.13025e-17, cumulative = 1.38474e-15
smoothSolver:  Solving for nuTilda, Initial residual = 0.00177853, Final residual = 8.09668e-06, No Iterations 8
ExecutionTime = 5.82 s  ClockTime = 6 s

Time = 65

smoothSolver:  Solving for Ux, Initial residual = 0.00200873, Final residual = 9.42528e-06, No Iterations 8
smoothSolver:  Solving for Uy, Initial residual = 0.00136227, Final residual = 8.14995e-06, No Iterations 8
GAMG:  Solving for p, Initial residual = 0.00433803, Final residual = 2.29103e-05, No Iterations 4
time step continuity errors : sum local = 9.66349e-06, global = 3.29123e-16, cumulative = 1.71386e-15
smoothSolver:  Solving for nuTilda, Initial residual = 0.00173369, Final residual = 7.8721e-06, No Iterations 8
ExecutionTime = 5.91 s  ClockTime = 6 s

forces wings output:
    sum of forces:
        pressure : (20.2226 46.9822 -2.97929e-19)
        viscous  : (0.236807 -0.132608 3.84748e-20)
        porous   : (0 0 0)
    sum of moments:
        pressure : (-2.34911 1.01113 4.90443)
        viscous  : (0.00663039 0.0118404 -0.0248269)
        porous   : (0 0 0)

Time = 66

smoothSolver:  Solving for Ux, Initial residual = 0.00198431, Final residual = 9.35e-06, No Iterations 8
smoothSolver:  Solving for Uy, Initial residual = 0.00135353, Final residual = 8.11867e-06, No Iterations 8
GAMG:  Solving for p, Initial residual = 0.004229, Final residual = 2.42624e-05, No Iterations 4
time step continuity errors : sum local = 1.02283e-05, global = 1.15603e-16, cumulative = 1.82946e-15
smoothSolver:  Solving for nuTilda, Initial residual = 0.00169008, Final residual = 7.65898e-06, No Iterations 8
ExecutionTime = 5.99 s  ClockTime = 6 s

Time = 67

smoothSolver:  Solving for Ux, Initial residual = 0.00196091, Final residual = 9.27623e-06, No Iterations 8
smoothSolver:  Solving for Uy, Initial residual = 0.00134507, Final residual = 8.08618e-06, No Iterations 8
GAMG:  Solving for p, Initial residual = 0.00411878, Final residual = 2.47145e-05, No Iterations 4
time step continuity errors : sum local = 1.04157e-05, global = -1.31363e-16, cumulative = 1.6981e-15
smoothSolver:  Solving for nuTilda, Initial residual = 0.00164801, Final residual = 7.45419e-06, No Iterations 8
ExecutionTime = 6.08 s  ClockTime = 6 s

Time = 68

smoothSolver:  Solving for Ux, Initial residual = 0.00193918, Final residual = 9.20613e-06, No Iterations 8
smoothSolver:  Solving for Uy, Initial residual = 0.00133626, Final residual = 8.05148e-06, No Iterations 8
GAMG:  Solving for p, Initial residual = 0.00402014, Final residual = 2.36782e-05, No Iterations 4
time step continuity errors : sum local = 9.98167e-06, global = -1.60752e-18, cumulative = 1.69649e-15
smoothSolver:  Solving for nuTilda, Initial residual = 0.00160648, Final residual = 7.26094e-06, No Iterations 8
ExecutionTime = 6.16 s  ClockTime = 6 s

Time = 69

smoothSolver:  Solving for Ux, Initial residual = 0.00191922, Final residual = 9.1389e-06, No Iterations 8
smoothSolver:  Solving for Uy, Initial residual = 0.00132699, Final residual = 8.0157e-06, No Iterations 8
GAMG:  Solving for p, Initial residual = 0.00392843, Final residual = 2.23706e-05, No Iterations 4
time step continuity errors : sum local = 9.43764e-06, global = 8.78828e-17, cumulative = 1.78437e-15
smoothSolver:  Solving for nuTilda, Initial residual = 0.00156696, Final residual = 7.0806e-06, No Iterations 8
ExecutionTime = 6.24 s  ClockTime = 6 s

Time = 70

smoothSolver:  Solving for Ux, Initial residual = 0.00189973, Final residual = 9.07229e-06, No Iterations 8
smoothSolver:  Solving for Uy, Initial residual = 0.0013176, Final residual = 7.97968e-06, No Iterations 8
GAMG:  Solving for p, Initial residual = 0.0038375, Final residual = 2.12973e-05, No Iterations 4
time step continuity errors : sum local = 8.99049e-06, global = 2.37492e-16, cumulative = 2.02186e-15
smoothSolver:  Solving for nuTilda, Initial residual = 0.00152609, Final residual = 6.90298e-06, No Iterations 8
ExecutionTime = 6.33 s  ClockTime = 6 s

forces wings output:
    sum of forces:
        pressure : (20.6314 47.9183 -3.2459e-19)
        viscous  : (0.22469 -0.127434 3.90644e-20)
        porous   : (0 0 0)
    sum of moments:
        pressure : (-2.39591 1.03157 5.01256)
        viscous  : (0.00637172 0.0112345 -0.0238795)
        porous   : (0 0 0)

Time = 71

smoothSolver:  Solving for Ux, Initial residual = 0.0018802, Final residual = 9.00466e-06, No Iterations 8
smoothSolver:  Solving for Uy, Initial residual = 0.00130867, Final residual = 7.94372e-06, No Iterations 8
GAMG:  Solving for p, Initial residual = 0.00374873, Final residual = 2.08529e-05, No Iterations 4
time step continuity errors : sum local = 8.80512e-06, global = 2.29124e-16, cumulative = 2.25099e-15
smoothSolver:  Solving for nuTilda, Initial residual = 0.00148681, Final residual = 6.73185e-06, No Iterations 8
ExecutionTime = 6.42 s  ClockTime = 6 s

Time = 72

smoothSolver:  Solving for Ux, Initial residual = 0.00186071, Final residual = 8.93584e-06, No Iterations 8
smoothSolver:  Solving for Uy, Initial residual = 0.00130023, Final residual = 7.90693e-06, No Iterations 8
GAMG:  Solving for p, Initial residual = 0.00366763, Final residual = 2.1269e-05, No Iterations 4
time step continuity errors : sum local = 8.98078e-06, global = 1.18429e-17, cumulative = 2.26283e-15
smoothSolver:  Solving for nuTilda, Initial residual = 0.00144858, Final residual = 6.56131e-06, No Iterations 8
ExecutionTime = 6.5 s  ClockTime = 6 s

Time = 73

smoothSolver:  Solving for Ux, Initial residual = 0.00184179, Final residual = 8.8672e-06, No Iterations 8
smoothSolver:  Solving for Uy, Initial residual = 0.00129199, Final residual = 7.86875e-06, No Iterations 8
GAMG:  Solving for p, Initial residual = 0.00358934, Final residual = 2.18465e-05, No Iterations 4
time step continuity errors : sum local = 9.22555e-06, global = -3.08244e-17, cumulative = 2.23201e-15
smoothSolver:  Solving for nuTilda, Initial residual = 0.00141412, Final residual = 6.38933e-06, No Iterations 8
ExecutionTime = 6.58 s  ClockTime = 6 s

Time = 74

smoothSolver:  Solving for Ux, Initial residual = 0.00182397, Final residual = 8.80001e-06, No Iterations 8
smoothSolver:  Solving for Uy, Initial residual = 0.0012837, Final residual = 7.82899e-06, No Iterations 8
GAMG:  Solving for p, Initial residual = 0.00351487, Final residual = 2.19572e-05, No Iterations 4
time step continuity errors : sum local = 9.27681e-06, global = -7.93916e-18, cumulative = 2.22407e-15
smoothSolver:  Solving for nuTilda, Initial residual = 0.00138246, Final residual = 6.21727e-06, No Iterations 8
ExecutionTime = 6.66 s  ClockTime = 6 s

Time = 75

smoothSolver:  Solving for Ux, Initial residual = 0.00180703, Final residual = 8.73451e-06, No Iterations 8
smoothSolver:  Solving for Uy, Initial residual = 0.00127529, Final residual = 7.7887e-06, No Iterations 8
GAMG:  Solving for p, Initial residual = 0.00344195, Final residual = 2.16586e-05, No Iterations 4
time step continuity errors : sum local = 9.15669e-06, global = -3.14304e-17, cumulative = 2.19264e-15
smoothSolver:  Solving for nuTilda, Initial residual = 0.00135086, Final residual = 6.05801e-06, No Iterations 8
ExecutionTime = 6.74 s  ClockTime = 7 s

forces wings output:
    sum of forces:
        pressure : (20.9977 48.817 -3.51381e-19)
        viscous  : (0.212972 -0.122379 3.95627e-20)
        porous   : (0 0 0)
    sum of moments:
        pressure : (-2.44085 1.04989 5.07015)
        viscous  : (0.00611894 0.0106486 -0.0229573)
        porous   : (0 0 0)

Time = 76

smoothSolver:  Solving for Ux, Initial residual = 0.00179048, Final residual = 8.66998e-06, No Iterations 8
smoothSolver:  Solving for Uy, Initial residual = 0.00126691, Final residual = 7.74827e-06, No Iterations 8
GAMG:  Solving for p, Initial residual = 0.00337451, Final residual = 2.14082e-05, No Iterations 4
time step continuity errors : sum local = 9.0551e-06, global = 1.10003e-16, cumulative = 2.30264e-15
smoothSolver:  Solving for nuTilda, Initial residual = 0.00131988, Final residual = 5.90535e-06, No Iterations 8
ExecutionTime = 6.83 s  ClockTime = 7 s

Time = 77

smoothSolver:  Solving for Ux, Initial residual = 0.001774, Final residual = 8.60551e-06, No Iterations 8
smoothSolver:  Solving for Uy, Initial residual = 0.00125865, Final residual = 7.70782e-06, No Iterations 8
GAMG:  Solving for p, Initial residual = 0.00331016, Final residual = 2.14326e-05, No Iterations 4
time step continuity errors : sum local = 9.06824e-06, global = 2.25707e-16, cumulative = 2.52835e-15
smoothSolver:  Solving for nuTilda, Initial residual = 0.00128962, Final residual = 5.75859e-06, No Iterations 8
ExecutionTime = 6.92 s  ClockTime = 7 s

Time = 78

smoothSolver:  Solving for Ux, Initial residual = 0.00175773, Final residual = 8.54168e-06, No Iterations 8
smoothSolver:  Solving for Uy, Initial residual = 0.00125037, Final residual = 7.66646e-06, No Iterations 8
GAMG:  Solving for p, Initial residual = 0.00324931, Final residual = 2.16578e-05, No Iterations 4
time step continuity errors : sum local = 9.16633e-06, global = 9.07474e-17, cumulative = 2.61909e-15
smoothSolver:  Solving for nuTilda, Initial residual = 0.00126011, Final residual = 5.61605e-06, No Iterations 8
ExecutionTime = 7 s  ClockTime = 7 s

Time = 79

smoothSolver:  Solving for Ux, Initial residual = 0.00174193, Final residual = 8.47895e-06, No Iterations 8
smoothSolver:  Solving for Uy, Initial residual = 0.001242, Final residual = 7.62366e-06, No Iterations 8
GAMG:  Solving for p, Initial residual = 0.0031908, Final residual = 2.20778e-05, No Iterations 4
time step continuity errors : sum local = 9.34686e-06, global = 1.74266e-16, cumulative = 2.79336e-15
smoothSolver:  Solving for nuTilda, Initial residual = 0.00123034, Final residual = 5.47567e-06, No Iterations 8
ExecutionTime = 7.09 s  ClockTime = 7 s

Time = 80

smoothSolver:  Solving for Ux, Initial residual = 0.00172675, Final residual = 8.41718e-06, No Iterations 8
smoothSolver:  Solving for Uy, Initial residual = 0.00123357, Final residual = 7.57965e-06, No Iterations 8
GAMG:  Solving for p, Initial residual = 0.00313674, Final residual = 2.2483e-05, No Iterations 4
time step continuity errors : sum local = 9.52278e-06, global = 7.15852e-17, cumulative = 2.86495e-15
smoothSolver:  Solving for nuTilda, Initial residual = 0.00120136, Final residual = 5.3395e-06, No Iterations 8
ExecutionTime = 7.17 s  ClockTime = 7 s

forces wings output:
    sum of forces:
        pressure : (21.3772 49.7407 -3.77203e-19)
        viscous  : (0.201676 -0.117442 3.99698e-20)
        porous   : (0 0 0)
    sum of moments:
        pressure : (-2.48704 1.06886 5.13461)
        viscous  : (0.00587212 0.0100838 -0.0220622)
        porous   : (0 0 0)

Time = 81

smoothSolver:  Solving for Ux, Initial residual = 0.00171209, Final residual = 8.35577e-06, No Iterations 8
smoothSolver:  Solving for Uy, Initial residual = 0.00122519, Final residual = 7.53526e-06, No Iterations 8
GAMG:  Solving for p, Initial residual = 0.00308559, Final residual = 2.27076e-05, No Iterations 4
time step continuity errors : sum local = 9.62322e-06, global = 1.85644e-16, cumulative = 3.05059e-15
smoothSolver:  Solving for nuTilda, Initial residual = 0.0011733, Final residual = 5.20888e-06, No Iterations 8
ExecutionTime = 7.26 s  ClockTime = 7 s

Time = 82

smoothSolver:  Solving for Ux, Initial residual = 0.00169776, Final residual = 8.29483e-06, No Iterations 8
smoothSolver:  Solving for Uy, Initial residual = 0.00121694, Final residual = 7.49104e-06, No Iterations 8
GAMG:  Solving for p, Initial residual = 0.00303609, Final residual = 2.26631e-05, No Iterations 4
time step continuity errors : sum local = 9.60859e-06, global = 3.5381e-16, cumulative = 3.4044e-15
smoothSolver:  Solving for nuTilda, Initial residual = 0.0011457, Final residual = 5.08248e-06, No Iterations 8
ExecutionTime = 7.33 s  ClockTime = 7 s

Time = 83

smoothSolver:  Solving for Ux, Initial residual = 0.00168364, Final residual = 8.23433e-06, No Iterations 8
smoothSolver:  Solving for Uy, Initial residual = 0.00120881, Final residual = 7.44688e-06, No Iterations 8
GAMG:  Solving for p, Initial residual = 0.00298927, Final residual = 2.25211e-05, No Iterations 4
time step continuity errors : sum local = 9.55211e-06, global = 3.96636e-16, cumulative = 3.80104e-15
smoothSolver:  Solving for nuTilda, Initial residual = 0.00111944, Final residual = 4.95961e-06, No Iterations 8
ExecutionTime = 7.42 s  ClockTime = 7 s

Time = 84

smoothSolver:  Solving for Ux, Initial residual = 0.00166973, Final residual = 8.17446e-06, No Iterations 8
smoothSolver:  Solving for Uy, Initial residual = 0.00120064, Final residual = 7.402e-06, No Iterations 8
GAMG:  Solving for p, Initial residual = 0.00294372, Final residual = 2.24119e-05, No Iterations 4
time step continuity errors : sum local = 9.50963e-06, global = 1.37364e-16, cumulative = 3.9384e-15
smoothSolver:  Solving for nuTilda, Initial residual = 0.00109307, Final residual = 4.84034e-06, No Iterations 8
ExecutionTime = 7.51 s  ClockTime = 7 s

Time = 85

smoothSolver:  Solving for Ux, Initial residual = 0.00165605, Final residual = 8.11558e-06, No Iterations 8
smoothSolver:  Solving for Uy, Initial residual = 0.00119233, Final residual = 7.35592e-06, No Iterations 8
GAMG:  Solving for p, Initial residual = 0.00289991, Final residual = 2.24065e-05, No Iterations 4
time step continuity errors : sum local = 9.51175e-06, global = 5.3582e-18, cumulative = 3.94376e-15
smoothSolver:  Solving for nuTilda, Initial residual = 0.00106718, Final residual = 4.72683e-06, No Iterations 8
ExecutionTime = 7.59 s  ClockTime = 7 s

forces wings output:
    sum of forces:
        pressure : (21.7623 50.6624 -4.02081e-19)
        viscous  : (0.190827 -0.112648 4.05479e-20)
        porous   : (0 0 0)
    sum of moments:
        pressure : (-2.53312 1.08811 5.21028)
        viscous  : (0.00563239 0.00954137 -0.0211922)
        porous   : (0 0 0)

Time = 86

smoothSolver:  Solving for Ux, Initial residual = 0.00164264, Final residual = 8.05746e-06, No Iterations 8
smoothSolver:  Solving for Uy, Initial residual = 0.00118392, Final residual = 7.30881e-06, No Iterations 8
GAMG:  Solving for p, Initial residual = 0.00285995, Final residual = 2.25673e-05, No Iterations 4
time step continuity errors : sum local = 9.58501e-06, global = -8.80574e-17, cumulative = 3.8557e-15
smoothSolver:  Solving for nuTilda, Initial residual = 0.00104247, Final residual = 4.61879e-06, No Iterations 8
ExecutionTime = 7.68 s  ClockTime = 7 s

Time = 87

smoothSolver:  Solving for Ux, Initial residual = 0.00162944, Final residual = 7.9998e-06, No Iterations 8
smoothSolver:  Solving for Uy, Initial residual = 0.00117558, Final residual = 7.26146e-06, No Iterations 8
GAMG:  Solving for p, Initial residual = 0.00282219, Final residual = 2.28079e-05, No Iterations 4
time step continuity errors : sum local = 9.69252e-06, global = -6.5526e-17, cumulative = 3.79017e-15
smoothSolver:  Solving for nuTilda, Initial residual = 0.00101948, Final residual = 4.51645e-06, No Iterations 8
ExecutionTime = 7.76 s  ClockTime = 8 s

Time = 88

smoothSolver:  Solving for Ux, Initial residual = 0.0016164, Final residual = 7.94245e-06, No Iterations 8
smoothSolver:  Solving for Uy, Initial residual = 0.0011674, Final residual = 7.21448e-06, No Iterations 8
GAMG:  Solving for p, Initial residual = 0.00278657, Final residual = 2.30608e-05, No Iterations 4
time step continuity errors : sum local = 9.80554e-06, global = -1.14854e-16, cumulative = 3.67532e-15
smoothSolver:  Solving for nuTilda, Initial residual = 0.000996422, Final residual = 4.41849e-06, No Iterations 8
ExecutionTime = 7.84 s  ClockTime = 8 s

Time = 89

smoothSolver:  Solving for Ux, Initial residual = 0.00160353, Final residual = 7.88521e-06, No Iterations 8
smoothSolver:  Solving for Uy, Initial residual = 0.00115933, Final residual = 7.16782e-06, No Iterations 8
GAMG:  Solving for p, Initial residual = 0.00275233, Final residual = 2.33025e-05, No Iterations 4
time step continuity errors : sum local = 9.91401e-06, global = -3.05295e-16, cumulative = 3.37003e-15
smoothSolver:  Solving for nuTilda, Initial residual = 0.000974139, Final residual = 4.32293e-06, No Iterations 8
ExecutionTime = 7.92 s  ClockTime = 8 s

Time = 90

smoothSolver:  Solving for Ux, Initial residual = 0.00159082, Final residual = 7.8286e-06, No Iterations 8
smoothSolver:  Solving for Uy, Initial residual = 0.00115128, Final residual = 7.1211e-06, No Iterations 8
GAMG:  Solving for p, Initial residual = 0.00272084, Final residual = 2.35139e-05, No Iterations 4
time step continuity errors : sum local = 1.00097e-05, global = -1.05817e-16, cumulative = 3.26421e-15
smoothSolver:  Solving for nuTilda, Initial residual = 0.000952771, Final residual = 4.23089e-06, No Iterations 8
ExecutionTime = 8 s  ClockTime = 8 s

forces wings output:
    sum of forces:
        pressure : (22.1393 51.5678 -4.25924e-19)
        viscous  : (0.180488 -0.10803 4.0963e-20)
        porous   : (0 0 0)
    sum of moments:
        pressure : (-2.57839 1.10697 5.28237)
        viscous  : (0.0054015 0.0090244 -0.0203514)
        porous   : (0 0 0)

Time = 91

smoothSolver:  Solving for Ux, Initial residual = 0.00157825, Final residual = 7.77267e-06, No Iterations 8
smoothSolver:  Solving for Uy, Initial residual = 0.00114314, Final residual = 7.07354e-06, No Iterations 8
GAMG:  Solving for p, Initial residual = 0.00268662, Final residual = 2.3471e-05, No Iterations 4
time step continuity errors : sum local = 9.99384e-06, global = 8.23596e-17, cumulative = 3.34657e-15
smoothSolver:  Solving for nuTilda, Initial residual = 0.000932282, Final residual = 4.14152e-06, No Iterations 8
ExecutionTime = 8.1 s  ClockTime = 8 s

Time = 92

smoothSolver:  Solving for Ux, Initial residual = 0.00156588, Final residual = 7.71776e-06, No Iterations 8
smoothSolver:  Solving for Uy, Initial residual = 0.00113479, Final residual = 7.02488e-06, No Iterations 8
GAMG:  Solving for p, Initial residual = 0.0026545, Final residual = 2.33062e-05, No Iterations 4
time step continuity errors : sum local = 9.92764e-06, global = -1.90513e-16, cumulative = 3.15606e-15
smoothSolver:  Solving for nuTilda, Initial residual = 0.000912933, Final residual = 4.05465e-06, No Iterations 8
ExecutionTime = 8.17 s  ClockTime = 8 s

Time = 93

smoothSolver:  Solving for Ux, Initial residual = 0.00155371, Final residual = 7.66356e-06, No Iterations 8
smoothSolver:  Solving for Uy, Initial residual = 0.00112633, Final residual = 6.97538e-06, No Iterations 8
GAMG:  Solving for p, Initial residual = 0.00262426, Final residual = 2.30689e-05, No Iterations 4
time step continuity errors : sum local = 9.83101e-06, global = -2.18471e-16, cumulative = 2.93758e-15
smoothSolver:  Solving for nuTilda, Initial residual = 0.000892797, Final residual = 3.97351e-06, No Iterations 8
ExecutionTime = 8.26 s  ClockTime = 8 s

Time = 94

smoothSolver:  Solving for Ux, Initial residual = 0.00154163, Final residual = 7.60993e-06, No Iterations 8
smoothSolver:  Solving for Uy, Initial residual = 0.00111794, Final residual = 6.92589e-06, No Iterations 8
GAMG:  Solving for p, Initial residual = 0.00259614, Final residual = 2.28559e-05, No Iterations 4
time step continuity errors : sum local = 9.74526e-06, global = 7.03288e-17, cumulative = 3.00791e-15
smoothSolver:  Solving for nuTilda, Initial residual = 0.000874145, Final residual = 3.8955e-06, No Iterations 8
ExecutionTime = 8.34 s  ClockTime = 8 s

Time = 95

smoothSolver:  Solving for Ux, Initial residual = 0.0015296, Final residual = 7.55645e-06, No Iterations 8
smoothSolver:  Solving for Uy, Initial residual = 0.00110971, Final residual = 6.87697e-06, No Iterations 8
GAMG:  Solving for p, Initial residual = 0.00257072, Final residual = 2.27642e-05, No Iterations 4
time step continuity errors : sum local = 9.71166e-06, global = -1.09437e-16, cumulative = 2.89848e-15
smoothSolver:  Solving for nuTilda, Initial residual = 0.000856545, Final residual = 3.821e-06, No Iterations 8
ExecutionTime = 8.42 s  ClockTime = 8 s

forces wings output:
    sum of forces:
        pressure : (22.5178 52.4877 -4.49678e-19)
        viscous  : (0.170753 -0.103646 4.17437e-20)
        porous   : (0 0 0)
    sum of moments:
        pressure : (-2.62438 1.12589 5.34757)
        viscous  : (0.00518229 0.00853763 -0.0195545)
        porous   : (0 0 0)

Time = 96

smoothSolver:  Solving for Ux, Initial residual = 0.00151761, Final residual = 7.50318e-06, No Iterations 8
smoothSolver:  Solving for Uy, Initial residual = 0.00110162, Final residual = 6.82868e-06, No Iterations 8
GAMG:  Solving for p, Initial residual = 0.0025472, Final residual = 2.28425e-05, No Iterations 4
time step continuity errors : sum local = 9.75104e-06, global = -2.61773e-17, cumulative = 2.8723e-15
smoothSolver:  Solving for nuTilda, Initial residual = 0.000840441, Final residual = 3.75412e-06, No Iterations 8
ExecutionTime = 8.51 s  ClockTime = 8 s

Time = 97

smoothSolver:  Solving for Ux, Initial residual = 0.0015057, Final residual = 7.45026e-06, No Iterations 8
smoothSolver:  Solving for Uy, Initial residual = 0.00109364, Final residual = 6.78074e-06, No Iterations 8
GAMG:  Solving for p, Initial residual = 0.00252483, Final residual = 2.30276e-05, No Iterations 4
time step continuity errors : sum local = 9.83596e-06, global = 6.79372e-17, cumulative = 2.94024e-15
smoothSolver:  Solving for nuTilda, Initial residual = 0.00082476, Final residual = 3.68889e-06, No Iterations 8
ExecutionTime = 8.59 s  ClockTime = 8 s

Time = 98

smoothSolver:  Solving for Ux, Initial residual = 0.00149388, Final residual = 7.39793e-06, No Iterations 8
smoothSolver:  Solving for Uy, Initial residual = 0.0010857, Final residual = 6.73298e-06, No Iterations 8
GAMG:  Solving for p, Initial residual = 0.00250388, Final residual = 2.32781e-05, No Iterations 4
time step continuity errors : sum local = 9.94898e-06, global = 7.19026e-17, cumulative = 3.01214e-15
smoothSolver:  Solving for nuTilda, Initial residual = 0.000809848, Final residual = 3.62605e-06, No Iterations 8
ExecutionTime = 8.67 s  ClockTime = 8 s

Time = 99

smoothSolver:  Solving for Ux, Initial residual = 0.00148218, Final residual = 7.34634e-06, No Iterations 8
smoothSolver:  Solving for Uy, Initial residual = 0.00107781, Final residual = 6.68526e-06, No Iterations 8
GAMG:  Solving for p, Initial residual = 0.00248364, Final residual = 2.34558e-05, No Iterations 4
time step continuity errors : sum local = 1.00308e-05, global = 1.86273e-16, cumulative = 3.19841e-15
smoothSolver:  Solving for nuTilda, Initial residual = 0.000795336, Final residual = 3.56487e-06, No Iterations 8
ExecutionTime = 8.75 s  ClockTime = 9 s

Time = 100

smoothSolver:  Solving for Ux, Initial residual = 0.00147053, Final residual = 7.29504e-06, No Iterations 8
smoothSolver:  Solving for Uy, Initial residual = 0.00106994, Final residual = 6.6376e-06, No Iterations 8
GAMG:  Solving for p, Initial residual = 0.00246336, Final residual = 2.35487e-05, No Iterations 4
time step continuity errors : sum local = 1.00766e-05, global = -2.38134e-16, cumulative = 2.96028e-15
smoothSolver:  Solving for nuTilda, Initial residual = 0.000781163, Final residual = 3.5046e-06, No Iterations 8
ExecutionTime = 8.84 s  ClockTime = 9 s

forces wings output:
    sum of forces:
        pressure : (22.8776 53.355 -4.7225e-19)
        viscous  : (0.161683 -0.0995848 4.28531e-20)
        porous   : (0 0 0)
    sum of moments:
        pressure : (-2.66775 1.14388 5.41427)
        viscous  : (0.00497924 0.00808417 -0.018811)
        porous   : (0 0 0)

Time = 101

smoothSolver:  Solving for Ux, Initial residual = 0.00145894, Final residual = 7.24387e-06, No Iterations 8
smoothSolver:  Solving for Uy, Initial residual = 0.0010621, Final residual = 6.58978e-06, No Iterations 8
GAMG:  Solving for p, Initial residual = 0.00244233, Final residual = 2.34753e-05, No Iterations 4
time step continuity errors : sum local = 1.00512e-05, global = -5.6936e-17, cumulative = 2.90334e-15
smoothSolver:  Solving for nuTilda, Initial residual = 0.000767361, Final residual = 3.44485e-06, No Iterations 8
ExecutionTime = 8.92 s  ClockTime = 9 s

Time = 102

smoothSolver:  Solving for Ux, Initial residual = 0.00144742, Final residual = 7.19279e-06, No Iterations 8
smoothSolver:  Solving for Uy, Initial residual = 0.00105431, Final residual = 6.54226e-06, No Iterations 8
GAMG:  Solving for p, Initial residual = 0.00242165, Final residual = 2.33767e-05, No Iterations 4
time step continuity errors : sum local = 1.00154e-05, global = 1.07513e-17, cumulative = 2.91409e-15
smoothSolver:  Solving for nuTilda, Initial residual = 0.00075391, Final residual = 3.38556e-06, No Iterations 8
ExecutionTime = 9.01 s  ClockTime = 9 s

Time = 103

smoothSolver:  Solving for Ux, Initial residual = 0.00143603, Final residual = 7.1424e-06, No Iterations 8
smoothSolver:  Solving for Uy, Initial residual = 0.00104657, Final residual = 6.49491e-06, No Iterations 8
GAMG:  Solving for p, Initial residual = 0.00240165, Final residual = 2.32983e-05, No Iterations 4
time step continuity errors : sum local = 9.9882e-06, global = 1.89741e-16, cumulative = 3.10383e-15
smoothSolver:  Solving for nuTilda, Initial residual = 0.000740974, Final residual = 3.32679e-06, No Iterations 8
ExecutionTime = 9.09 s  ClockTime = 9 s

Time = 104

smoothSolver:  Solving for Ux, Initial residual = 0.00142472, Final residual = 7.09262e-06, No Iterations 8
smoothSolver:  Solving for Uy, Initial residual = 0.00103885, Final residual = 6.44777e-06, No Iterations 8
GAMG:  Solving for p, Initial residual = 0.00238255, Final residual = 2.33089e-05, No Iterations 4
time step continuity errors : sum local = 9.99917e-06, global = -3.07868e-16, cumulative = 2.79597e-15
smoothSolver:  Solving for nuTilda, Initial residual = 0.000728527, Final residual = 3.26861e-06, No Iterations 8
ExecutionTime = 9.17 s  ClockTime = 9 s

Time = 105

smoothSolver:  Solving for Ux, Initial residual = 0.00141346, Final residual = 7.04309e-06, No Iterations 8
smoothSolver:  Solving for Uy, Initial residual = 0.00103118, Final residual = 6.40078e-06, No Iterations 8
GAMG:  Solving for p, Initial residual = 0.00236441, Final residual = 2.33489e-05, No Iterations 4
time step continuity errors : sum local = 1.00225e-05, global = 2.56628e-17, cumulative = 2.82163e-15
smoothSolver:  Solving for nuTilda, Initial residual = 0.000715824, Final residual = 3.21184e-06, No Iterations 8
ExecutionTime = 9.25 s  ClockTime = 9 s

forces wings output:
    sum of forces:
        pressure : (23.2203 54.1842 -4.93371e-19)
        viscous  : (0.153138 -0.0957732 4.38403e-20)
        porous   : (0 0 0)
    sum of moments:
        pressure : (-2.70921 1.16101 5.47571)
        viscous  : (0.00478866 0.00765688 -0.0181136)
        porous   : (0 0 0)

Time = 106

smoothSolver:  Solving for Ux, Initial residual = 0.00140222, Final residual = 6.99361e-06, No Iterations 8
smoothSolver:  Solving for Uy, Initial residual = 0.00102356, Final residual = 6.35417e-06, No Iterations 8
GAMG:  Solving for p, Initial residual = 0.00234695, Final residual = 2.34204e-05, No Iterations 4
time step continuity errors : sum local = 1.00595e-05, global = -5.97878e-17, cumulative = 2.76184e-15
smoothSolver:  Solving for nuTilda, Initial residual = 0.000703418, Final residual = 3.15578e-06, No Iterations 8
ExecutionTime = 9.34 s  ClockTime = 9 s

Time = 107

smoothSolver:  Solving for Ux, Initial residual = 0.00139106, Final residual = 6.94448e-06, No Iterations 8
smoothSolver:  Solving for Uy, Initial residual = 0.00101603, Final residual = 6.30783e-06, No Iterations 8
GAMG:  Solving for p, Initial residual = 0.00232962, Final residual = 1.63136e-05, No Iterations 5
time step continuity errors : sum local = 7.07024e-06, global = 1.34626e-16, cumulative = 2.89647e-15
smoothSolver:  Solving for nuTilda, Initial residual = 0.000691727, Final residual = 3.0994e-06, No Iterations 8
ExecutionTime = 9.43 s  ClockTime = 9 s

Time = 108

smoothSolver:  Solving for Ux, Initial residual = 0.00138029, Final residual = 6.89839e-06, No Iterations 8
smoothSolver:  Solving for Uy, Initial residual = 0.00100771, Final residual = 6.25793e-06, No Iterations 8
GAMG:  Solving for p, Initial residual = 0.00231143, Final residual = 1.90835e-05, No Iterations 4
time step continuity errors : sum local = 8.2229e-06, global = 2.98393e-17, cumulative = 2.92631e-15
smoothSolver:  Solving for nuTilda, Initial residual = 0.000679207, Final residual = 3.04687e-06, No Iterations 8
ExecutionTime = 9.51 s  ClockTime = 9 s

Time = 109

smoothSolver:  Solving for Ux, Initial residual = 0.0013692, Final residual = 6.84896e-06, No Iterations 8
smoothSolver:  Solving for Uy, Initial residual = 0.00100049, Final residual = 6.21254e-06, No Iterations 8
GAMG:  Solving for p, Initial residual = 0.00229196, Final residual = 1.86977e-05, No Iterations 4
time step continuity errors : sum local = 8.07225e-06, global = -4.79452e-17, cumulative = 2.87836e-15
smoothSolver:  Solving for nuTilda, Initial residual = 0.00066779, Final residual = 2.99644e-06, No Iterations 8
ExecutionTime = 9.59 s  ClockTime = 9 s

Time = 110

smoothSolver:  Solving for Ux, Initial residual = 0.00135799, Final residual = 6.79912e-06, No Iterations 8
smoothSolver:  Solving for Uy, Initial residual = 0.00099361, Final residual = 6.16885e-06, No Iterations 8
GAMG:  Solving for p, Initial residual = 0.00227316, Final residual = 1.86223e-05, No Iterations 4
time step continuity errors : sum local = 8.04152e-06, global = -2.83593e-16, cumulative = 2.59477e-15
smoothSolver:  Solving for nuTilda, Initial residual = 0.000656892, Final residual = 2.94837e-06, No Iterations 8
ExecutionTime = 9.67 s  ClockTime = 9 s

forces wings output:
    sum of forces:
        pressure : (23.5363 54.9524 -5.13062e-19)
        viscous  : (0.144986 -0.092136 4.42384e-20)
        porous   : (0 0 0)
    sum of moments:
        pressure : (-2.74762 1.17682 5.53013)
        viscous  : (0.0046068 0.00724928 -0.0174477)
        porous   : (0 0 0)

Time = 111

smoothSolver:  Solving for Ux, Initial residual = 0.00134684, Final residual = 6.75051e-06, No Iterations 8
smoothSolver:  Solving for Uy, Initial residual = 0.000986722, Final residual = 6.12526e-06, No Iterations 8
GAMG:  Solving for p, Initial residual = 0.00225454, Final residual = 1.87814e-05, No Iterations 4
time step continuity errors : sum local = 8.10659e-06, global = 1.33205e-16, cumulative = 2.72797e-15
smoothSolver:  Solving for nuTilda, Initial residual = 0.000646009, Final residual = 2.90202e-06, No Iterations 8
ExecutionTime = 9.76 s  ClockTime = 10 s

Time = 112

smoothSolver:  Solving for Ux, Initial residual = 0.00133595, Final residual = 6.70334e-06, No Iterations 8
smoothSolver:  Solving for Uy, Initial residual = 0.000979482, Final residual = 6.0799e-06, No Iterations 8
GAMG:  Solving for p, Initial residual = 0.00223618, Final residual = 1.89171e-05, No Iterations 4
time step continuity errors : sum local = 8.16496e-06, global = 3.40918e-18, cumulative = 2.73138e-15
smoothSolver:  Solving for nuTilda, Initial residual = 0.000636047, Final residual = 2.85966e-06, No Iterations 8
ExecutionTime = 9.84 s  ClockTime = 10 s

Time = 113

smoothSolver:  Solving for Ux, Initial residual = 0.00132524, Final residual = 6.6574e-06, No Iterations 8
smoothSolver:  Solving for Uy, Initial residual = 0.000971891, Final residual = 6.03288e-06, No Iterations 8
GAMG:  Solving for p, Initial residual = 0.0022166, Final residual = 1.87405e-05, No Iterations 4
time step continuity errors : sum local = 8.09466e-06, global = 3.28756e-16, cumulative = 3.06014e-15
smoothSolver:  Solving for nuTilda, Initial residual = 0.000625728, Final residual = 2.82072e-06, No Iterations 8
ExecutionTime = 9.93 s  ClockTime = 10 s

Time = 114

smoothSolver:  Solving for Ux, Initial residual = 0.0013145, Final residual = 6.61156e-06, No Iterations 8
smoothSolver:  Solving for Uy, Initial residual = 0.00096423, Final residual = 5.98582e-06, No Iterations 8
GAMG:  Solving for p, Initial residual = 0.00219607, Final residual = 1.83746e-05, No Iterations 4
time step continuity errors : sum local = 7.94628e-06, global = -1.25159e-16, cumulative = 2.93498e-15
smoothSolver:  Solving for nuTilda, Initial residual = 0.000616376, Final residual = 2.78278e-06, No Iterations 8
ExecutionTime = 10.01 s  ClockTime = 10 s

Time = 115

smoothSolver:  Solving for Ux, Initial residual = 0.00130369, Final residual = 6.5653e-06, No Iterations 8
smoothSolver:  Solving for Uy, Initial residual = 0.000956843, Final residual = 5.94007e-06, No Iterations 8
GAMG:  Solving for p, Initial residual = 0.00217449, Final residual = 1.79673e-05, No Iterations 4
time step continuity errors : sum local = 7.77923e-06, global = -3.06223e-16, cumulative = 2.62875e-15
smoothSolver:  Solving for nuTilda, Initial residual = 0.000608013, Final residual = 2.74665e-06, No Iterations 8
ExecutionTime = 10.09 s  ClockTime = 10 s

forces wings output:
    sum of forces:
        pressure : (23.8395 55.6914 -5.30492e-19)
        viscous  : (0.137169 -0.0886423 4.42655e-20)
        porous   : (0 0 0)
    sum of moments:
        pressure : (-2.78457 1.19198 5.58095)
        viscous  : (0.00443211 0.00685845 -0.0168072)
        porous   : (0 0 0)

Time = 116

smoothSolver:  Solving for Ux, Initial residual = 0.0012928, Final residual = 6.51833e-06, No Iterations 8
smoothSolver:  Solving for Uy, Initial residual = 0.000949807, Final residual = 5.89599e-06, No Iterations 8
GAMG:  Solving for p, Initial residual = 0.00215294, Final residual = 1.76907e-05, No Iterations 4
time step continuity errors : sum local = 7.66547e-06, global = 8.58272e-17, cumulative = 2.71458e-15
smoothSolver:  Solving for nuTilda, Initial residual = 0.000599416, Final residual = 2.70983e-06, No Iterations 8
ExecutionTime = 10.18 s  ClockTime = 10 s

Time = 117

smoothSolver:  Solving for Ux, Initial residual = 0.00128198, Final residual = 6.47143e-06, No Iterations 8
smoothSolver:  Solving for Uy, Initial residual = 0.000942997, Final residual = 5.85289e-06, No Iterations 8
GAMG:  Solving for p, Initial residual = 0.00213114, Final residual = 1.75774e-05, No Iterations 4
time step continuity errors : sum local = 7.61909e-06, global = 1.00821e-16, cumulative = 2.8154e-15
smoothSolver:  Solving for nuTilda, Initial residual = 0.000591026, Final residual = 2.67222e-06, No Iterations 8
ExecutionTime = 10.26 s  ClockTime = 10 s

Time = 118

smoothSolver:  Solving for Ux, Initial residual = 0.00127124, Final residual = 6.42524e-06, No Iterations 8
smoothSolver:  Solving for Uy, Initial residual = 0.00093613, Final residual = 5.80947e-06, No Iterations 8
GAMG:  Solving for p, Initial residual = 0.00210946, Final residual = 1.75334e-05, No Iterations 4
time step continuity errors : sum local = 7.60106e-06, global = 1.01593e-16, cumulative = 2.917e-15
smoothSolver:  Solving for nuTilda, Initial residual = 0.000582931, Final residual = 2.63436e-06, No Iterations 8
ExecutionTime = 10.34 s  ClockTime = 10 s

Time = 119

smoothSolver:  Solving for Ux, Initial residual = 0.00126062, Final residual = 6.37982e-06, No Iterations 8
smoothSolver:  Solving for Uy, Initial residual = 0.000929083, Final residual = 5.76529e-06, No Iterations 8
GAMG:  Solving for p, Initial residual = 0.00208725, Final residual = 1.74068e-05, No Iterations 4
time step continuity errors : sum local = 7.54739e-06, global = -1.59853e-16, cumulative = 2.75714e-15
smoothSolver:  Solving for nuTilda, Initial residual = 0.000575022, Final residual = 2.59661e-06, No Iterations 8
ExecutionTime = 10.43 s  ClockTime = 10 s

Time = 120

smoothSolver:  Solving for Ux, Initial residual = 0.00125005, Final residual = 6.33452e-06, No Iterations 8
smoothSolver:  Solving for Uy, Initial residual = 0.000921913, Final residual = 5.72083e-06, No Iterations 8
GAMG:  Solving for p, Initial residual = 0.00206376, Final residual = 1.68486e-05, No Iterations 4
time step continuity errors : sum local = 7.34627e-06, global = 7.88841e-17, cumulative = 2.83603e-15
smoothSolver:  Solving for nuTilda, Initial residual = 0.000567175, Final residual = 2.55941e-06, No Iterations 8
ExecutionTime = 10.51 s  ClockTime = 10 s

forces wings output:
    sum of forces:
        pressure : (24.1078 56.3557 -5.44743e-19)
        viscous  : (0.129677 -0.0852992 4.66555e-20)
        porous   : (0 0 0)
    sum of moments:
        pressure : (-2.81779 1.20539 5.61918)
        viscous  : (0.00426496 0.00648383 -0.0161924)
        porous   : (0 0 0)

Time = 121

smoothSolver:  Solving for Ux, Initial residual = 0.00123952, Final residual = 6.28929e-06, No Iterations 8
smoothSolver:  Solving for Uy, Initial residual = 0.000914747, Final residual = 5.67675e-06, No Iterations 8
GAMG:  Solving for p, Initial residual = 0.00203953, Final residual = 1.93347e-05, No Iterations 4
time step continuity errors : sum local = 8.38355e-06, global = 9.62382e-17, cumulative = 2.93226e-15
smoothSolver:  Solving for nuTilda, Initial residual = 0.000559323, Final residual = 2.5233e-06, No Iterations 8
ExecutionTime = 10.6 s  ClockTime = 10 s

Time = 122

smoothSolver:  Solving for Ux, Initial residual = 0.00122871, Final residual = 6.24298e-06, No Iterations 8
smoothSolver:  Solving for Uy, Initial residual = 0.000908452, Final residual = 5.63651e-06, No Iterations 8
GAMG:  Solving for p, Initial residual = 0.00201597, Final residual = 1.44477e-05, No Iterations 5
time step continuity errors : sum local = 6.33119e-06, global = -1.52949e-16, cumulative = 2.77931e-15
[...]

forces wings output:
    sum of forces:
        pressure : (15.9341 32.4255 5.34587e-19)
        viscous  : (0.051304 -0.0334412 -1.7429e-20)
        porous   : (0 0 0)
    sum of moments:
        pressure : (-1.62127 0.796703 6.87443)
        viscous  : (0.00167206 0.0025652 -0.00713426)
        porous   : (0 0 0)

Time = 4971

smoothSolver:  Solving for Ux, Initial residual = 1.54013e-08, Final residual = 3.00293e-09, No Iterations 2
smoothSolver:  Solving for Uy, Initial residual = 8.005e-08, Final residual = 3.09466e-09, No Iterations 4
GAMG:  Solving for p, Initial residual = 1.15663e-06, Final residual = 3.49976e-07, No Iterations 1
time step continuity errors : sum local = 1.55265e-07, global = -1.01066e-17, cumulative = 3.63862e-14
smoothSolver:  Solving for nuTilda, Initial residual = 1.30383e-08, Final residual = 2.28197e-09, No Iterations 2
ExecutionTime = 369.18 s  ClockTime = 369 s

Time = 4972

smoothSolver:  Solving for Ux, Initial residual = 1.29271e-08, Final residual = 2.53365e-09, No Iterations 2
smoothSolver:  Solving for Uy, Initial residual = 5.60985e-08, Final residual = 2.33953e-09, No Iterations 4
GAMG:  Solving for p, Initial residual = 9.95811e-07, Final residual = 9.95811e-07, No Iterations 0
time step continuity errors : sum local = 4.41673e-07, global = -1.49166e-16, cumulative = 3.6237e-14
smoothSolver:  Solving for nuTilda, Initial residual = 1.84882e-08, Final residual = 2.14183e-09, No Iterations 2
ExecutionTime = 369.25 s  ClockTime = 369 s

Time = 4973

smoothSolver:  Solving for Ux, Initial residual = 1.24556e-08, Final residual = 2.46421e-09, No Iterations 2
smoothSolver:  Solving for Uy, Initial residual = 5.23252e-08, Final residual = 2.24706e-09, No Iterations 4
GAMG:  Solving for p, Initial residual = 9.72863e-07, Final residual = 9.72863e-07, No Iterations 0
time step continuity errors : sum local = 4.31497e-07, global = 1.97031e-16, cumulative = 3.64341e-14
smoothSolver:  Solving for nuTilda, Initial residual = 1.31196e-08, Final residual = 2.28324e-09, No Iterations 2
ExecutionTime = 369.31 s  ClockTime = 369 s

Time = 4974

smoothSolver:  Solving for Ux, Initial residual = 1.21696e-08, Final residual = 2.4201e-09, No Iterations 2
smoothSolver:  Solving for Uy, Initial residual = 4.94182e-08, Final residual = 9.98875e-09, No Iterations 2
GAMG:  Solving for p, Initial residual = 1.28465e-06, Final residual = 4.07296e-07, No Iterations 1
time step continuity errors : sum local = 1.80695e-07, global = -2.09836e-16, cumulative = 3.62242e-14
smoothSolver:  Solving for nuTilda, Initial residual = 1.81652e-08, Final residual = 2.06608e-09, No Iterations 2
ExecutionTime = 369.37 s  ClockTime = 369 s

Time = 4975

smoothSolver:  Solving for Ux, Initial residual = 1.51343e-08, Final residual = 2.89311e-09, No Iterations 2
smoothSolver:  Solving for Uy, Initial residual = 7.69216e-08, Final residual = 2.83722e-09, No Iterations 4
GAMG:  Solving for p, Initial residual = 7.70019e-07, Final residual = 7.70019e-07, No Iterations 0
time step continuity errors : sum local = 3.41547e-07, global = 3.44217e-16, cumulative = 3.65684e-14
smoothSolver:  Solving for nuTilda, Initial residual = 1.28281e-08, Final residual = 2.2162e-09, No Iterations 2
ExecutionTime = 369.43 s  ClockTime = 369 s

forces wings output:
    sum of forces:
        pressure : (15.934 32.4254 5.34585e-19)
        viscous  : (0.0513001 -0.0334392 -1.7427e-20)
        porous   : (0 0 0)
    sum of moments:
        pressure : (-1.62127 0.796701 6.87439)
        viscous  : (0.00167196 0.002565 -0.00713391)
        porous   : (0 0 0)

Time = 4976

smoothSolver:  Solving for Ux, Initial residual = 1.44864e-08, Final residual = 2.80747e-09, No Iterations 2
smoothSolver:  Solving for Uy, Initial residual = 7.14623e-08, Final residual = 2.74798e-09, No Iterations 4
GAMG:  Solving for p, Initial residual = 1.01623e-06, Final residual = 2.91143e-07, No Iterations 1
time step continuity errors : sum local = 1.29179e-07, global = 1.82005e-16, cumulative = 3.67504e-14
smoothSolver:  Solving for nuTilda, Initial residual = 1.79436e-08, Final residual = 2.00362e-09, No Iterations 2
ExecutionTime = 369.5 s  ClockTime = 369 s

Time = 4977

smoothSolver:  Solving for Ux, Initial residual = 1.46261e-08, Final residual = 2.8297e-09, No Iterations 2
smoothSolver:  Solving for Uy, Initial residual = 6.25818e-08, Final residual = 2.47541e-09, No Iterations 4
GAMG:  Solving for p, Initial residual = 9.03676e-07, Final residual = 9.03676e-07, No Iterations 0
time step continuity errors : sum local = 4.00819e-07, global = 2.18872e-17, cumulative = 3.67723e-14
smoothSolver:  Solving for nuTilda, Initial residual = 1.25208e-08, Final residual = 2.13709e-09, No Iterations 2
ExecutionTime = 369.56 s  ClockTime = 369 s

Time = 4978

smoothSolver:  Solving for Ux, Initial residual = 1.41276e-08, Final residual = 2.75577e-09, No Iterations 2
smoothSolver:  Solving for Uy, Initial residual = 5.83998e-08, Final residual = 2.39605e-09, No Iterations 4
GAMG:  Solving for p, Initial residual = 1.02768e-06, Final residual = 3.28838e-07, No Iterations 1
time step continuity errors : sum local = 1.45881e-07, global = 8.86487e-17, cumulative = 3.6861e-14
smoothSolver:  Solving for nuTilda, Initial residual = 1.77029e-08, Final residual = 1.93769e-09, No Iterations 2
ExecutionTime = 369.62 s  ClockTime = 370 s

Time = 4979

smoothSolver:  Solving for Ux, Initial residual = 1.44471e-08, Final residual = 2.87129e-09, No Iterations 2
smoothSolver:  Solving for Uy, Initial residual = 7.09742e-08, Final residual = 2.8085e-09, No Iterations 4
GAMG:  Solving for p, Initial residual = 8.84797e-07, Final residual = 8.84797e-07, No Iterations 0
time step continuity errors : sum local = 3.92439e-07, global = -1.67614e-16, cumulative = 3.66934e-14
smoothSolver:  Solving for nuTilda, Initial residual = 1.22528e-08, Final residual = 2.06741e-09, No Iterations 2
ExecutionTime = 369.68 s  ClockTime = 370 s

Time = 4980

smoothSolver:  Solving for Ux, Initial residual = 1.3953e-08, Final residual = 2.80744e-09, No Iterations 2
smoothSolver:  Solving for Uy, Initial residual = 6.61031e-08, Final residual = 2.70665e-09, No Iterations 4
GAMG:  Solving for p, Initial residual = 9.07864e-07, Final residual = 9.07864e-07, No Iterations 0
time step continuity errors : sum local = 4.02666e-07, global = 2.95396e-16, cumulative = 3.69888e-14
smoothSolver:  Solving for nuTilda, Initial residual = 1.75701e-08, Final residual = 1.9036e-09, No Iterations 2
ExecutionTime = 369.74 s  ClockTime = 370 s

forces wings output:
    sum of forces:
        pressure : (15.934 32.4255 5.34602e-19)
        viscous  : (0.0513042 -0.0334413 -1.74296e-20)
        porous   : (0 0 0)
    sum of moments:
        pressure : (-1.62127 0.796701 6.87439)
        viscous  : (0.00167206 0.00256521 -0.00713425)
        porous   : (0 0 0)

Time = 4981

smoothSolver:  Solving for Ux, Initial residual = 1.36669e-08, Final residual = 2.75966e-09, No Iterations 2
smoothSolver:  Solving for Uy, Initial residual = 6.215e-08, Final residual = 2.60226e-09, No Iterations 4
GAMG:  Solving for p, Initial residual = 1.43118e-06, Final residual = 4.0019e-07, No Iterations 1
time step continuity errors : sum local = 1.77513e-07, global = 9.13346e-17, cumulative = 3.70801e-14
smoothSolver:  Solving for nuTilda, Initial residual = 1.20763e-08, Final residual = 2.01538e-09, No Iterations 2
ExecutionTime = 369.81 s  ClockTime = 370 s

Time = 4982

smoothSolver:  Solving for Ux, Initial residual = 1.37943e-08, Final residual = 2.67297e-09, No Iterations 2
smoothSolver:  Solving for Uy, Initial residual = 7.74247e-08, Final residual = 2.86272e-09, No Iterations 4
GAMG:  Solving for p, Initial residual = 7.96318e-07, Final residual = 7.96318e-07, No Iterations 0
time step continuity errors : sum local = 3.53192e-07, global = 1.81055e-16, cumulative = 3.72611e-14
smoothSolver:  Solving for nuTilda, Initial residual = 1.74302e-08, Final residual = 1.86858e-09, No Iterations 2
ExecutionTime = 369.87 s  ClockTime = 370 s

Time = 4983

smoothSolver:  Solving for Ux, Initial residual = 1.31665e-08, Final residual = 2.5844e-09, No Iterations 2
smoothSolver:  Solving for Uy, Initial residual = 7.19985e-08, Final residual = 2.72841e-09, No Iterations 4
GAMG:  Solving for p, Initial residual = 9.68431e-07, Final residual = 9.68431e-07, No Iterations 0
time step continuity errors : sum local = 4.29518e-07, global = -5.02277e-17, cumulative = 3.72109e-14
smoothSolver:  Solving for nuTilda, Initial residual = 1.20199e-08, Final residual = 2.00361e-09, No Iterations 2
ExecutionTime = 369.93 s  ClockTime = 370 s

Time = 4984

smoothSolver:  Solving for Ux, Initial residual = 1.27576e-08, Final residual = 2.523e-09, No Iterations 2
smoothSolver:  Solving for Uy, Initial residual = 6.72902e-08, Final residual = 2.61815e-09, No Iterations 4
GAMG:  Solving for p, Initial residual = 1.35677e-06, Final residual = 4.08723e-07, No Iterations 1
time step continuity errors : sum local = 1.81293e-07, global = -7.35503e-17, cumulative = 3.71374e-14
smoothSolver:  Solving for nuTilda, Initial residual = 1.71447e-08, Final residual = 1.78766e-09, No Iterations 2
ExecutionTime = 370 s  ClockTime = 370 s

Time = 4985

smoothSolver:  Solving for Ux, Initial residual = 1.3748e-08, Final residual = 2.67932e-09, No Iterations 2
smoothSolver:  Solving for Uy, Initial residual = 7.32534e-08, Final residual = 2.80341e-09, No Iterations 4
GAMG:  Solving for p, Initial residual = 9.09053e-07, Final residual = 9.09053e-07, No Iterations 0
time step continuity errors : sum local = 4.03181e-07, global = -1.73344e-16, cumulative = 3.6964e-14
smoothSolver:  Solving for nuTilda, Initial residual = 1.16917e-08, Final residual = 1.92447e-09, No Iterations 2
ExecutionTime = 370.06 s  ClockTime = 370 s

forces wings output:
    sum of forces:
        pressure : (15.9341 32.4255 5.34602e-19)
        viscous  : (0.0513002 -0.0334393 -1.74272e-20)
        porous   : (0 0 0)
    sum of moments:
        pressure : (-1.62128 0.796703 6.87443)
        viscous  : (0.00167197 0.00256501 -0.00713393)
        porous   : (0 0 0)

Time = 4986

smoothSolver:  Solving for Ux, Initial residual = 1.3171e-08, Final residual = 2.61542e-09, No Iterations 2
smoothSolver:  Solving for Uy, Initial residual = 6.78459e-08, Final residual = 2.67313e-09, No Iterations 4
GAMG:  Solving for p, Initial residual = 9.62808e-07, Final residual = 9.62808e-07, No Iterations 0
time step continuity errors : sum local = 4.27019e-07, global = 1.54276e-16, cumulative = 3.71183e-14
smoothSolver:  Solving for nuTilda, Initial residual = 1.694e-08, Final residual = 1.74897e-09, No Iterations 2
ExecutionTime = 370.13 s  ClockTime = 370 s

Time = 4987

smoothSolver:  Solving for Ux, Initial residual = 1.28667e-08, Final residual = 2.56196e-09, No Iterations 2
smoothSolver:  Solving for Uy, Initial residual = 6.34216e-08, Final residual = 2.56535e-09, No Iterations 4
GAMG:  Solving for p, Initial residual = 1.36564e-06, Final residual = 4.21583e-07, No Iterations 1
time step continuity errors : sum local = 1.86993e-07, global = -1.78256e-16, cumulative = 3.694e-14
smoothSolver:  Solving for nuTilda, Initial residual = 1.13591e-08, Final residual = 1.83855e-09, No Iterations 2
ExecutionTime = 370.19 s  ClockTime = 370 s

Time = 4988

smoothSolver:  Solving for Ux, Initial residual = 1.49065e-08, Final residual = 2.92392e-09, No Iterations 2
smoothSolver:  Solving for Uy, Initial residual = 8.02461e-08, Final residual = 3.11591e-09, No Iterations 4
GAMG:  Solving for p, Initial residual = 8.81658e-07, Final residual = 8.81658e-07, No Iterations 0
time step continuity errors : sum local = 3.91027e-07, global = 2.15473e-16, cumulative = 3.71555e-14
smoothSolver:  Solving for nuTilda, Initial residual = 1.66598e-08, Final residual = 1.68559e-09, No Iterations 2
ExecutionTime = 370.26 s  ClockTime = 370 s

Time = 4989

smoothSolver:  Solving for Ux, Initial residual = 1.42671e-08, Final residual = 2.83352e-09, No Iterations 2
smoothSolver:  Solving for Uy, Initial residual = 7.46486e-08, Final residual = 2.97563e-09, No Iterations 4
GAMG:  Solving for p, Initial residual = 9.97416e-07, Final residual = 9.97416e-07, No Iterations 0
time step continuity errors : sum local = 4.42362e-07, global = 1.99159e-16, cumulative = 3.73547e-14
smoothSolver:  Solving for nuTilda, Initial residual = 1.12326e-08, Final residual = 1.81861e-09, No Iterations 2
ExecutionTime = 370.32 s  ClockTime = 370 s

Time = 4990

smoothSolver:  Solving for Ux, Initial residual = 1.38416e-08, Final residual = 2.75551e-09, No Iterations 2
smoothSolver:  Solving for Uy, Initial residual = 6.98642e-08, Final residual = 2.85221e-09, No Iterations 4
GAMG:  Solving for p, Initial residual = 1.41113e-06, Final residual = 4.46601e-07, No Iterations 1
time step continuity errors : sum local = 1.98084e-07, global = 3.3272e-18, cumulative = 3.7358e-14
smoothSolver:  Solving for nuTilda, Initial residual = 1.63996e-08, Final residual = 1.63026e-09, No Iterations 2
ExecutionTime = 370.38 s  ClockTime = 370 s

forces wings output:
    sum of forces:
        pressure : (15.9341 32.4255 5.34582e-19)
        viscous  : (0.051304 -0.0334412 -1.74293e-20)
        porous   : (0 0 0)
    sum of moments:
        pressure : (-1.62128 0.796703 6.87443)
        viscous  : (0.00167206 0.0025652 -0.00713427)
        porous   : (0 0 0)

Time = 4991

smoothSolver:  Solving for Ux, Initial residual = 1.48097e-08, Final residual = 2.85201e-09, No Iterations 2
smoothSolver:  Solving for Uy, Initial residual = 7.58035e-08, Final residual = 2.88375e-09, No Iterations 4
GAMG:  Solving for p, Initial residual = 9.24134e-07, Final residual = 9.24134e-07, No Iterations 0
time step continuity errors : sum local = 4.0986e-07, global = 2.02368e-17, cumulative = 3.73782e-14
smoothSolver:  Solving for nuTilda, Initial residual = 1.10302e-08, Final residual = 1.77568e-09, No Iterations 2
ExecutionTime = 370.45 s  ClockTime = 370 s

Time = 4992

smoothSolver:  Solving for Ux, Initial residual = 1.41105e-08, Final residual = 2.76826e-09, No Iterations 2
smoothSolver:  Solving for Uy, Initial residual = 7.0235e-08, Final residual = 2.74911e-09, No Iterations 4
GAMG:  Solving for p, Initial residual = 1.01168e-06, Final residual = 3.51378e-07, No Iterations 1
time step continuity errors : sum local = 1.55847e-07, global = -1.62267e-16, cumulative = 3.7216e-14
smoothSolver:  Solving for nuTilda, Initial residual = 1.62246e-08, Final residual = 1.59789e-09, No Iterations 2
ExecutionTime = 370.51 s  ClockTime = 370 s

Time = 4993

smoothSolver:  Solving for Ux, Initial residual = 1.57371e-08, Final residual = 2.9874e-09, No Iterations 2
smoothSolver:  Solving for Uy, Initial residual = 7.40598e-08, Final residual = 2.86657e-09, No Iterations 4
GAMG:  Solving for p, Initial residual = 9.67667e-07, Final residual = 9.67667e-07, No Iterations 0
time step continuity errors : sum local = 4.29159e-07, global = 2.24501e-16, cumulative = 3.74405e-14
smoothSolver:  Solving for nuTilda, Initial residual = 1.08766e-08, Final residual = 1.74576e-09, No Iterations 2
ExecutionTime = 370.57 s  ClockTime = 370 s

Time = 4994

smoothSolver:  Solving for Ux, Initial residual = 1.50881e-08, Final residual = 2.89468e-09, No Iterations 2
smoothSolver:  Solving for Uy, Initial residual = 6.8651e-08, Final residual = 2.7369e-09, No Iterations 4
GAMG:  Solving for p, Initial residual = 1.06536e-06, Final residual = 3.64995e-07, No Iterations 1
time step continuity errors : sum local = 1.61879e-07, global = -1.14983e-16, cumulative = 3.73255e-14
smoothSolver:  Solving for nuTilda, Initial residual = 1.61345e-08, Final residual = 1.58083e-09, No Iterations 2
ExecutionTime = 370.64 s  ClockTime = 371 s

Time = 4995

smoothSolver:  Solving for Ux, Initial residual = 1.46027e-08, Final residual = 2.80375e-09, No Iterations 2
smoothSolver:  Solving for Uy, Initial residual = 6.724e-08, Final residual = 2.73639e-09, No Iterations 4
GAMG:  Solving for p, Initial residual = 9.90758e-07, Final residual = 9.90758e-07, No Iterations 0
time step continuity errors : sum local = 4.39392e-07, global = 1.65336e-16, cumulative = 3.74908e-14
smoothSolver:  Solving for nuTilda, Initial residual = 1.07703e-08, Final residual = 1.73124e-09, No Iterations 2
ExecutionTime = 370.7 s  ClockTime = 371 s

forces wings output:
    sum of forces:
        pressure : (15.934 32.4255 5.34589e-19)
        viscous  : (0.0513003 -0.0334393 -1.74268e-20)
        porous   : (0 0 0)
    sum of moments:
        pressure : (-1.62127 0.796701 6.87438)
        viscous  : (0.00167197 0.00256501 -0.00713391)
        porous   : (0 0 0)

Time = 4996

smoothSolver:  Solving for Ux, Initial residual = 1.40376e-08, Final residual = 2.72918e-09, No Iterations 2
smoothSolver:  Solving for Uy, Initial residual = 6.23067e-08, Final residual = 2.63247e-09, No Iterations 4
GAMG:  Solving for p, Initial residual = 9.31809e-07, Final residual = 9.31809e-07, No Iterations 0
time step continuity errors : sum local = 4.13248e-07, global = -1.09538e-16, cumulative = 3.73813e-14
smoothSolver:  Solving for nuTilda, Initial residual = 1.6141e-08, Final residual = 1.58975e-09, No Iterations 2
ExecutionTime = 370.76 s  ClockTime = 371 s

Time = 4997

smoothSolver:  Solving for Ux, Initial residual = 1.37271e-08, Final residual = 2.672e-09, No Iterations 2
smoothSolver:  Solving for Uy, Initial residual = 5.85189e-08, Final residual = 2.52138e-09, No Iterations 4
GAMG:  Solving for p, Initial residual = 1.48423e-06, Final residual = 4.63671e-07, No Iterations 1
time step continuity errors : sum local = 2.0564e-07, global = 7.79848e-17, cumulative = 3.74593e-14
smoothSolver:  Solving for nuTilda, Initial residual = 1.07207e-08, Final residual = 1.72808e-09, No Iterations 2
ExecutionTime = 370.83 s  ClockTime = 371 s

Time = 4998

smoothSolver:  Solving for Ux, Initial residual = 1.59289e-08, Final residual = 3.05415e-09, No Iterations 2
smoothSolver:  Solving for Uy, Initial residual = 8.11139e-08, Final residual = 3.08043e-09, No Iterations 4
GAMG:  Solving for p, Initial residual = 7.93638e-07, Final residual = 7.93638e-07, No Iterations 0
time step continuity errors : sum local = 3.51973e-07, global = 5.97253e-17, cumulative = 3.7519e-14
smoothSolver:  Solving for nuTilda, Initial residual = 1.60812e-08, Final residual = 1.59766e-09, No Iterations 2
ExecutionTime = 370.89 s  ClockTime = 371 s

Time = 4999

smoothSolver:  Solving for Ux, Initial residual = 1.52382e-08, Final residual = 2.98241e-09, No Iterations 2
smoothSolver:  Solving for Uy, Initial residual = 7.53205e-08, Final residual = 2.93375e-09, No Iterations 4
GAMG:  Solving for p, Initial residual = 1.03667e-06, Final residual = 3.28787e-07, No Iterations 1
time step continuity errors : sum local = 1.45831e-07, global = 8.86177e-17, cumulative = 3.76076e-14
smoothSolver:  Solving for nuTilda, Initial residual = 1.07253e-08, Final residual = 1.7481e-09, No Iterations 2
ExecutionTime = 370.95 s  ClockTime = 371 s

Time = 5000

smoothSolver:  Solving for Ux, Initial residual = 1.60052e-08, Final residual = 3.10126e-09, No Iterations 2
smoothSolver:  Solving for Uy, Initial residual = 7.40097e-08, Final residual = 2.95691e-09, No Iterations 4
GAMG:  Solving for p, Initial residual = 9.53112e-07, Final residual = 9.53112e-07, No Iterations 0
time step continuity errors : sum local = 4.22698e-07, global = 2.19577e-16, cumulative = 3.78272e-14
smoothSolver:  Solving for nuTilda, Initial residual = 1.62807e-08, Final residual = 1.64004e-09, No Iterations 2
ExecutionTime = 371.15 s  ClockTime = 371 s

forces wings output:
    sum of forces:
        pressure : (15.934 32.4255 5.34609e-19)
        viscous  : (0.0513041 -0.0334412 -1.74294e-20)
        porous   : (0 0 0)
    sum of moments:
        pressure : (-1.62127 0.796701 6.87439)
        viscous  : (0.00167206 0.0025652 -0.00713425)
        porous   : (0 0 0)

End

