/*---------------------------------------------------------------------------*\
| =========                 |                                                 |
| \\      /  F ield         | OpenFOAM: The Open Source CFD Toolbox           |
|  \\    /   O peration     | Version:  2.3.0                                 |
|   \\  /    A nd           | Web:      www.OpenFOAM.org                      |
|    \\/     M anipulation  |                                                 |
\*---------------------------------------------------------------------------*/
Build  : 2.3.0-f5222ca19ce6
Exec   : simpleFoam -case Runs/first_flatplate_300_8/case
Date   : Jan 11 2015
Time   : 12:56:04
Host   : "lordvon-XPS-8300"
PID    : 6077
Case   : Runs/first_flatplate_300_8/case
nProcs : 1
sigFpe : Enabling floating point exception trapping (FOAM_SIGFPE).
fileModificationChecking : Monitoring run-time modified files using timeStampMaster
allowSystemOperations : Disallowing user-supplied system call operations

// * * * * * * * * * * * * * * * * * * * * * * * * * * * * * * * * * * * * * //
Create time

Create mesh for time = 0

Reading field p

Reading field U

Reading/calculating face flux field phi

Selecting incompressible transport model Newtonian
Selecting RAS turbulence model SpalartAllmaras
SpalartAllmarasCoeffs
{
    sigmaNut        0.66666;
    kappa           0.41;
    Cb1             0.1355;
    Cb2             0.622;
    Cw2             0.3;
    Cw3             2;
    Cv1             7.1;
    Cv2             5;
}

    Employing Ashford correction
No finite volume options present


SIMPLE: convergence criteria
    field p	 tolerance 1e-12
    field U	 tolerance 1e-12
    field nuTilda	 tolerance 1e-12


Starting time loop

forces wings:
    Not including porosity effects

Time = 1

smoothSolver:  Solving for Ux, Initial residual = 1, Final residual = 0.00710199, No Iterations 6
smoothSolver:  Solving for Uy, Initial residual = 1, Final residual = 0.00801212, No Iterations 4
GAMG:  Solving for p, Initial residual = 1, Final residual = 0.00727646, No Iterations 11
time step continuity errors : sum local = 0.000658356, global = -1.12425e-16, cumulative = -1.12425e-16
smoothSolver:  Solving for nuTilda, Initial residual = 1, Final residual = 0.00401426, No Iterations 4
ExecutionTime = 0.37 s  ClockTime = 0 s

Time = 2

smoothSolver:  Solving for Ux, Initial residual = 0.542207, Final residual = 0.00265132, No Iterations 8
smoothSolver:  Solving for Uy, Initial residual = 0.673888, Final residual = 0.00373195, No Iterations 8
GAMG:  Solving for p, Initial residual = 0.754489, Final residual = 0.00646581, No Iterations 6
time step continuity errors : sum local = 0.00123652, global = 3.19592e-17, cumulative = -8.04654e-17
smoothSolver:  Solving for nuTilda, Initial residual = 0.185574, Final residual = 0.000738932, No Iterations 6
ExecutionTime = 0.47 s  ClockTime = 0 s

Time = 3

smoothSolver:  Solving for Ux, Initial residual = 0.225216, Final residual = 0.00107891, No Iterations 8
smoothSolver:  Solving for Uy, Initial residual = 0.247274, Final residual = 0.00134987, No Iterations 8
GAMG:  Solving for p, Initial residual = 0.582266, Final residual = 0.00410051, No Iterations 9
time step continuity errors : sum local = 0.0010685, global = 2.53339e-16, cumulative = 1.72873e-16
smoothSolver:  Solving for nuTilda, Initial residual = 0.0947343, Final residual = 0.000877727, No Iterations 6
ExecutionTime = 0.57 s  ClockTime = 0 s

Time = 4

smoothSolver:  Solving for Ux, Initial residual = 0.0847477, Final residual = 0.000302982, No Iterations 8
smoothSolver:  Solving for Uy, Initial residual = 0.0804048, Final residual = 0.000412593, No Iterations 8
GAMG:  Solving for p, Initial residual = 0.471361, Final residual = 0.00454924, No Iterations 7
time step continuity errors : sum local = 0.00117749, global = 1.876e-16, cumulative = 3.60473e-16
smoothSolver:  Solving for nuTilda, Initial residual = 0.0717344, Final residual = 0.000207246, No Iterations 8
ExecutionTime = 0.67 s  ClockTime = 0 s

Time = 5

smoothSolver:  Solving for Ux, Initial residual = 0.200474, Final residual = 0.000956342, No Iterations 8
smoothSolver:  Solving for Uy, Initial residual = 0.239244, Final residual = 0.00127333, No Iterations 8
GAMG:  Solving for p, Initial residual = 0.421492, Final residual = 0.00398983, No Iterations 6
time step continuity errors : sum local = 0.00109519, global = 1.58192e-16, cumulative = 5.18665e-16
smoothSolver:  Solving for nuTilda, Initial residual = 0.0589524, Final residual = 0.000186401, No Iterations 8
ExecutionTime = 0.75 s  ClockTime = 0 s

forces wings output:
    sum of forces:
        pressure : (-141.905 -1009.7 2.24675e-18)
        viscous  : (0.528438 -0.0519799 -3.0514e-20)
        porous   : (0 0 0)
    sum of moments:
        pressure : (50.4852 -7.09523 -255.572)
        viscous  : (0.002599 0.0264219 0.00558686)
        porous   : (0 0 0)

Time = 6

smoothSolver:  Solving for Ux, Initial residual = 0.16477, Final residual = 0.000732634, No Iterations 8
smoothSolver:  Solving for Uy, Initial residual = 0.228444, Final residual = 0.00119855, No Iterations 8
GAMG:  Solving for p, Initial residual = 0.343512, Final residual = 0.00213478, No Iterations 9
time step continuity errors : sum local = 0.000600267, global = -1.20294e-16, cumulative = 3.98371e-16
smoothSolver:  Solving for nuTilda, Initial residual = 0.0488928, Final residual = 0.000160597, No Iterations 8
ExecutionTime = 0.86 s  ClockTime = 0 s

Time = 7

smoothSolver:  Solving for Ux, Initial residual = 0.115092, Final residual = 0.000444684, No Iterations 8
smoothSolver:  Solving for Uy, Initial residual = 0.191564, Final residual = 0.000978001, No Iterations 8
GAMG:  Solving for p, Initial residual = 0.261249, Final residual = 0.00239607, No Iterations 6
time step continuity errors : sum local = 0.000663053, global = 1.77563e-16, cumulative = 5.75934e-16
smoothSolver:  Solving for nuTilda, Initial residual = 0.0409577, Final residual = 0.000137733, No Iterations 8
ExecutionTime = 0.95 s  ClockTime = 0 s

Time = 8

smoothSolver:  Solving for Ux, Initial residual = 0.12944, Final residual = 0.000592224, No Iterations 8
smoothSolver:  Solving for Uy, Initial residual = 0.192323, Final residual = 0.00100165, No Iterations 8
GAMG:  Solving for p, Initial residual = 0.277394, Final residual = 0.00214036, No Iterations 6
time step continuity errors : sum local = 0.000621654, global = -1.5209e-16, cumulative = 4.23845e-16
smoothSolver:  Solving for nuTilda, Initial residual = 0.0346743, Final residual = 0.000119484, No Iterations 8
ExecutionTime = 1.05 s  ClockTime = 1 s

Time = 9

smoothSolver:  Solving for Ux, Initial residual = 0.0597501, Final residual = 0.000239825, No Iterations 8
smoothSolver:  Solving for Uy, Initial residual = 0.0521307, Final residual = 0.000263997, No Iterations 8
GAMG:  Solving for p, Initial residual = 0.214386, Final residual = 0.00183392, No Iterations 8
time step continuity errors : sum local = 0.000534818, global = -6.73327e-17, cumulative = 3.56512e-16
smoothSolver:  Solving for nuTilda, Initial residual = 0.029797, Final residual = 0.000105508, No Iterations 8
ExecutionTime = 1.15 s  ClockTime = 1 s

Time = 10

smoothSolver:  Solving for Ux, Initial residual = 0.0564724, Final residual = 0.000229981, No Iterations 8
smoothSolver:  Solving for Uy, Initial residual = 0.0832495, Final residual = 0.000423669, No Iterations 8
GAMG:  Solving for p, Initial residual = 0.174823, Final residual = 0.0014335, No Iterations 5
time step continuity errors : sum local = 0.000407482, global = 1.22082e-16, cumulative = 4.78594e-16
smoothSolver:  Solving for nuTilda, Initial residual = 0.026024, Final residual = 9.49779e-05, No Iterations 8
ExecutionTime = 1.24 s  ClockTime = 1 s

forces wings output:
    sum of forces:
        pressure : (-85.6543 -609.462 8.06214e-19)
        viscous  : (0.504991 -0.0902565 -2.94118e-20)
        porous   : (0 0 0)
    sum of moments:
        pressure : (30.4731 -4.28272 -158.238)
        viscous  : (0.00451282 0.0252495 -0.00488836)
        porous   : (0 0 0)

Time = 11

smoothSolver:  Solving for Ux, Initial residual = 0.0668962, Final residual = 0.000298902, No Iterations 8
smoothSolver:  Solving for Uy, Initial residual = 0.11348, Final residual = 0.000580397, No Iterations 8
GAMG:  Solving for p, Initial residual = 0.184562, Final residual = 0.00149145, No Iterations 6
time step continuity errors : sum local = 0.000432158, global = -1.50928e-16, cumulative = 3.27667e-16
smoothSolver:  Solving for nuTilda, Initial residual = 0.0229073, Final residual = 8.64709e-05, No Iterations 8
ExecutionTime = 1.33 s  ClockTime = 1 s

Time = 12

smoothSolver:  Solving for Ux, Initial residual = 0.0366152, Final residual = 0.000128541, No Iterations 8
smoothSolver:  Solving for Uy, Initial residual = 0.0295808, Final residual = 0.000132995, No Iterations 8
GAMG:  Solving for p, Initial residual = 0.141482, Final residual = 0.00120545, No Iterations 7
time step continuity errors : sum local = 0.000340516, global = -4.55111e-17, cumulative = 2.82155e-16
smoothSolver:  Solving for nuTilda, Initial residual = 0.0202965, Final residual = 7.91016e-05, No Iterations 8
ExecutionTime = 1.44 s  ClockTime = 1 s

Time = 13

smoothSolver:  Solving for Ux, Initial residual = 0.0468996, Final residual = 0.000185875, No Iterations 8
smoothSolver:  Solving for Uy, Initial residual = 0.0730566, Final residual = 0.000359699, No Iterations 8
GAMG:  Solving for p, Initial residual = 0.121975, Final residual = 0.000696501, No Iterations 6
time step continuity errors : sum local = 0.000193923, global = -1.96535e-17, cumulative = 2.62502e-16
smoothSolver:  Solving for nuTilda, Initial residual = 0.0180321, Final residual = 7.2596e-05, No Iterations 8
ExecutionTime = 1.53 s  ClockTime = 1 s

Time = 14

smoothSolver:  Solving for Ux, Initial residual = 0.0428384, Final residual = 0.000181414, No Iterations 8
smoothSolver:  Solving for Uy, Initial residual = 0.0545549, Final residual = 0.000266545, No Iterations 8
GAMG:  Solving for p, Initial residual = 0.12895, Final residual = 0.000894619, No Iterations 6
time step continuity errors : sum local = 0.000254778, global = -6.51165e-17, cumulative = 1.97385e-16
smoothSolver:  Solving for nuTilda, Initial residual = 0.0161409, Final residual = 6.69677e-05, No Iterations 8
ExecutionTime = 1.62 s  ClockTime = 1 s

Time = 15

smoothSolver:  Solving for Ux, Initial residual = 0.0256993, Final residual = 9.7101e-05, No Iterations 8
smoothSolver:  Solving for Uy, Initial residual = 0.0171344, Final residual = 7.35663e-05, No Iterations 8
GAMG:  Solving for p, Initial residual = 0.0971616, Final residual = 0.000802307, No Iterations 7
time step continuity errors : sum local = 0.000226082, global = -4.10171e-17, cumulative = 1.56368e-16
smoothSolver:  Solving for nuTilda, Initial residual = 0.0145607, Final residual = 6.22665e-05, No Iterations 8
ExecutionTime = 1.72 s  ClockTime = 1 s

forces wings output:
    sum of forces:
        pressure : (-29.5424 -210.205 -2.57946e-19)
        viscous  : (0.490648 -0.0841844 -2.94529e-21)
        porous   : (0 0 0)
    sum of moments:
        pressure : (10.5102 -1.47712 -57.4841)
        viscous  : (0.00420922 0.0245324 -0.0039636)
        porous   : (0 0 0)

Time = 16

smoothSolver:  Solving for Ux, Initial residual = 0.026284, Final residual = 0.000108344, No Iterations 8
smoothSolver:  Solving for Uy, Initial residual = 0.04121, Final residual = 0.000201228, No Iterations 8
GAMG:  Solving for p, Initial residual = 0.0884301, Final residual = 0.000653961, No Iterations 6
time step continuity errors : sum local = 0.000181304, global = -7.96708e-17, cumulative = 7.66976e-17
smoothSolver:  Solving for nuTilda, Initial residual = 0.0132969, Final residual = 5.83365e-05, No Iterations 8
ExecutionTime = 1.81 s  ClockTime = 1 s

Time = 17

smoothSolver:  Solving for Ux, Initial residual = 0.020344, Final residual = 8.28154e-05, No Iterations 8
smoothSolver:  Solving for Uy, Initial residual = 0.0309616, Final residual = 0.000150607, No Iterations 8
GAMG:  Solving for p, Initial residual = 0.0897409, Final residual = 0.000542613, No Iterations 6
time step continuity errors : sum local = 0.000152028, global = -2.39849e-16, cumulative = -1.63151e-16
smoothSolver:  Solving for nuTilda, Initial residual = 0.0122227, Final residual = 5.48739e-05, No Iterations 8
ExecutionTime = 1.91 s  ClockTime = 1 s

Time = 18

smoothSolver:  Solving for Ux, Initial residual = 0.0148355, Final residual = 5.08008e-05, No Iterations 8
smoothSolver:  Solving for Uy, Initial residual = 0.0174411, Final residual = 8.11631e-05, No Iterations 8
GAMG:  Solving for p, Initial residual = 0.0648961, Final residual = 0.000502122, No Iterations 6
time step continuity errors : sum local = 0.000138905, global = -9.46068e-18, cumulative = -1.72612e-16
smoothSolver:  Solving for nuTilda, Initial residual = 0.0113048, Final residual = 5.16813e-05, No Iterations 8
ExecutionTime = 2 s  ClockTime = 2 s

Time = 19

smoothSolver:  Solving for Ux, Initial residual = 0.0180682, Final residual = 7.09184e-05, No Iterations 8
smoothSolver:  Solving for Uy, Initial residual = 0.0253346, Final residual = 0.000121482, No Iterations 8
GAMG:  Solving for p, Initial residual = 0.0586545, Final residual = 0.000457943, No Iterations 6
time step continuity errors : sum local = 0.000126272, global = 3.27666e-16, cumulative = 1.55054e-16
smoothSolver:  Solving for nuTilda, Initial residual = 0.010495, Final residual = 4.86841e-05, No Iterations 8
ExecutionTime = 2.09 s  ClockTime = 2 s

Time = 20

smoothSolver:  Solving for Ux, Initial residual = 0.0148804, Final residual = 5.97048e-05, No Iterations 8
smoothSolver:  Solving for Uy, Initial residual = 0.0132563, Final residual = 6.19878e-05, No Iterations 8
GAMG:  Solving for p, Initial residual = 0.0582235, Final residual = 0.000334032, No Iterations 6
time step continuity errors : sum local = 9.20316e-05, global = -2.98225e-16, cumulative = -1.4317e-16
smoothSolver:  Solving for nuTilda, Initial residual = 0.00979938, Final residual = 4.59189e-05, No Iterations 8
ExecutionTime = 2.19 s  ClockTime = 2 s

forces wings output:
    sum of forces:
        pressure : (-4.36228 -31.0392 -8.27229e-19)
        viscous  : (0.477184 -0.0733154 1.77708e-20)
        porous   : (0 0 0)
    sum of moments:
        pressure : (1.55196 -0.218114 -11.0114)
        viscous  : (0.00366577 0.0238592 -0.00169847)
        porous   : (0 0 0)

Time = 21

smoothSolver:  Solving for Ux, Initial residual = 0.012584, Final residual = 5.01956e-05, No Iterations 8
smoothSolver:  Solving for Uy, Initial residual = 0.0113662, Final residual = 5.25044e-05, No Iterations 8
GAMG:  Solving for p, Initial residual = 0.0437457, Final residual = 0.000312296, No Iterations 5
time step continuity errors : sum local = 8.68878e-05, global = -1.51965e-16, cumulative = -2.95135e-16
smoothSolver:  Solving for nuTilda, Initial residual = 0.00920152, Final residual = 4.34634e-05, No Iterations 8
ExecutionTime = 2.28 s  ClockTime = 2 s

Time = 22

smoothSolver:  Solving for Ux, Initial residual = 0.0108265, Final residual = 4.45417e-05, No Iterations 8
smoothSolver:  Solving for Uy, Initial residual = 0.0152107, Final residual = 7.20477e-05, No Iterations 8
GAMG:  Solving for p, Initial residual = 0.0391894, Final residual = 0.0002839, No Iterations 6
time step continuity errors : sum local = 7.89253e-05, global = 2.19414e-16, cumulative = -7.57212e-17
smoothSolver:  Solving for nuTilda, Initial residual = 0.00869162, Final residual = 4.12587e-05, No Iterations 8
ExecutionTime = 2.38 s  ClockTime = 2 s

Time = 23

smoothSolver:  Solving for Ux, Initial residual = 0.00760866, Final residual = 2.92026e-05, No Iterations 8
smoothSolver:  Solving for Uy, Initial residual = 0.00779383, Final residual = 3.51994e-05, No Iterations 8
GAMG:  Solving for p, Initial residual = 0.038137, Final residual = 0.000364456, No Iterations 5
time step continuity errors : sum local = 0.000101253, global = -1.10061e-16, cumulative = -1.85782e-16
smoothSolver:  Solving for nuTilda, Initial residual = 0.00823719, Final residual = 3.92385e-05, No Iterations 8
ExecutionTime = 2.46 s  ClockTime = 2 s

Time = 24

smoothSolver:  Solving for Ux, Initial residual = 0.00801624, Final residual = 2.90559e-05, No Iterations 8
smoothSolver:  Solving for Uy, Initial residual = 0.00972913, Final residual = 4.42895e-05, No Iterations 8
GAMG:  Solving for p, Initial residual = 0.0299307, Final residual = 0.000239179, No Iterations 5
time step continuity errors : sum local = 6.62162e-05, global = -3.1854e-17, cumulative = -2.17637e-16
smoothSolver:  Solving for nuTilda, Initial residual = 0.00782372, Final residual = 3.73527e-05, No Iterations 8
ExecutionTime = 2.55 s  ClockTime = 2 s

Time = 25

smoothSolver:  Solving for Ux, Initial residual = 0.00884494, Final residual = 3.41879e-05, No Iterations 8
smoothSolver:  Solving for Uy, Initial residual = 0.00912523, Final residual = 4.10879e-05, No Iterations 8
GAMG:  Solving for p, Initial residual = 0.0271374, Final residual = 0.000198607, No Iterations 6
time step continuity errors : sum local = 5.51429e-05, global = 3.41459e-17, cumulative = -1.83491e-16
smoothSolver:  Solving for nuTilda, Initial residual = 0.00743707, Final residual = 3.55864e-05, No Iterations 8
ExecutionTime = 2.64 s  ClockTime = 2 s

forces wings output:
    sum of forces:
        pressure : (2.65111 18.8636 -9.10202e-19)
        viscous  : (0.463551 -0.0665835 2.40737e-20)
        porous   : (0 0 0)
    sum of moments:
        pressure : (-0.943182 0.132556 2.33773)
        viscous  : (0.00332918 0.0231775 -0.000471435)
        porous   : (0 0 0)

Time = 26

smoothSolver:  Solving for Ux, Initial residual = 0.00789496, Final residual = 3.08146e-05, No Iterations 8
smoothSolver:  Solving for Uy, Initial residual = 0.00448309, Final residual = 1.89828e-05, No Iterations 8
GAMG:  Solving for p, Initial residual = 0.0255639, Final residual = 0.000209551, No Iterations 5
time step continuity errors : sum local = 5.78911e-05, global = -1.75234e-16, cumulative = -3.58724e-16
smoothSolver:  Solving for nuTilda, Initial residual = 0.0070771, Final residual = 3.39167e-05, No Iterations 8
ExecutionTime = 2.74 s  ClockTime = 2 s

Time = 27

smoothSolver:  Solving for Ux, Initial residual = 0.0072126, Final residual = 2.8673e-05, No Iterations 8
smoothSolver:  Solving for Uy, Initial residual = 0.0060018, Final residual = 2.73166e-05, No Iterations 8
GAMG:  Solving for p, Initial residual = 0.0210617, Final residual = 0.000165908, No Iterations 5
time step continuity errors : sum local = 4.59508e-05, global = 3.50346e-18, cumulative = -3.55221e-16
smoothSolver:  Solving for nuTilda, Initial residual = 0.00675135, Final residual = 3.23929e-05, No Iterations 8
ExecutionTime = 2.83 s  ClockTime = 2 s

Time = 28

smoothSolver:  Solving for Ux, Initial residual = 0.00606052, Final residual = 2.3604e-05, No Iterations 8
smoothSolver:  Solving for Uy, Initial residual = 0.0057665, Final residual = 2.67939e-05, No Iterations 8
GAMG:  Solving for p, Initial residual = 0.0184809, Final residual = 0.000174554, No Iterations 5
time step continuity errors : sum local = 4.83157e-05, global = 2.02198e-16, cumulative = -1.53023e-16
smoothSolver:  Solving for nuTilda, Initial residual = 0.00644511, Final residual = 3.09614e-05, No Iterations 8
bounding nuTilda, min: -8.64801e-05 max: 0.407592 average: 0.0864504
ExecutionTime = 2.92 s  ClockTime = 2 s

Time = 29

smoothSolver:  Solving for Ux, Initial residual = 0.00530367, Final residual = 1.97224e-05, No Iterations 8
smoothSolver:  Solving for Uy, Initial residual = 0.00412603, Final residual = 1.85185e-05, No Iterations 8
GAMG:  Solving for p, Initial residual = 0.0172426, Final residual = 0.000139194, No Iterations 5
time step continuity errors : sum local = 3.8773e-05, global = 1.30028e-17, cumulative = -1.4002e-16
smoothSolver:  Solving for nuTilda, Initial residual = 0.00616234, Final residual = 2.96551e-05, No Iterations 8
bounding nuTilda, min: -3.34628e-05 max: 0.40734 average: 0.0855609
ExecutionTime = 3.02 s  ClockTime = 3 s

Time = 30

smoothSolver:  Solving for Ux, Initial residual = 0.00550038, Final residual = 2.03753e-05, No Iterations 8
smoothSolver:  Solving for Uy, Initial residual = 0.00455664, Final residual = 2.11573e-05, No Iterations 8
GAMG:  Solving for p, Initial residual = 0.0152599, Final residual = 0.0001264, No Iterations 5
time step continuity errors : sum local = 3.4993e-05, global = -1.78398e-16, cumulative = -3.18419e-16
smoothSolver:  Solving for nuTilda, Initial residual = 0.00589412, Final residual = 2.83939e-05, No Iterations 8
ExecutionTime = 3.1 s  ClockTime = 3 s

forces wings output:
    sum of forces:
        pressure : (2.89943 20.6305 -9.9932e-19)
        viscous  : (0.449895 -0.0630416 2.81983e-20)
        porous   : (0 0 0)
    sum of moments:
        pressure : (-1.03152 0.144971 2.77553)
        viscous  : (0.00315208 0.0224947 -6.92853e-05)
        porous   : (0 0 0)

Time = 31

smoothSolver:  Solving for Ux, Initial residual = 0.0056552, Final residual = 2.16014e-05, No Iterations 8
smoothSolver:  Solving for Uy, Initial residual = 0.00330173, Final residual = 1.54985e-05, No Iterations 8
GAMG:  Solving for p, Initial residual = 0.0130486, Final residual = 0.000120355, No Iterations 5
time step continuity errors : sum local = 3.33551e-05, global = 1.92668e-16, cumulative = -1.25751e-16
smoothSolver:  Solving for nuTilda, Initial residual = 0.00564619, Final residual = 2.72434e-05, No Iterations 8
bounding nuTilda, min: -0.000112155 max: 0.40701 average: 0.0838485
ExecutionTime = 3.2 s  ClockTime = 3 s

Time = 32

smoothSolver:  Solving for Ux, Initial residual = 0.00551898, Final residual = 2.19099e-05, No Iterations 8
smoothSolver:  Solving for Uy, Initial residual = 0.00267103, Final residual = 1.24555e-05, No Iterations 8
GAMG:  Solving for p, Initial residual = 0.0116078, Final residual = 5.96864e-05, No Iterations 5
time step continuity errors : sum local = 1.65025e-05, global = -7.45737e-17, cumulative = -2.00325e-16
smoothSolver:  Solving for nuTilda, Initial residual = 0.00540634, Final residual = 2.61177e-05, No Iterations 8
bounding nuTilda, min: -2.16297e-05 max: 0.406936 average: 0.0830232
ExecutionTime = 3.29 s  ClockTime = 3 s

Time = 33

smoothSolver:  Solving for Ux, Initial residual = 0.00514558, Final residual = 2.08152e-05, No Iterations 8
smoothSolver:  Solving for Uy, Initial residual = 0.00304261, Final residual = 1.4558e-05, No Iterations 8
GAMG:  Solving for p, Initial residual = 0.0106251, Final residual = 9.59625e-05, No Iterations 5
time step continuity errors : sum local = 2.66084e-05, global = 9.5746e-17, cumulative = -1.04579e-16
smoothSolver:  Solving for nuTilda, Initial residual = 0.00519183, Final residual = 2.51047e-05, No Iterations 8
ExecutionTime = 3.37 s  ClockTime = 3 s

Time = 34

smoothSolver:  Solving for Ux, Initial residual = 0.00474608, Final residual = 1.91277e-05, No Iterations 8
smoothSolver:  Solving for Uy, Initial residual = 0.0026385, Final residual = 1.29376e-05, No Iterations 8
GAMG:  Solving for p, Initial residual = 0.00920455, Final residual = 6.86531e-05, No Iterations 5
time step continuity errors : sum local = 1.90897e-05, global = -1.53655e-16, cumulative = -2.58234e-16
smoothSolver:  Solving for nuTilda, Initial residual = 0.00498605, Final residual = 2.41105e-05, No Iterations 8
bounding nuTilda, min: -0.00022572 max: 0.406908 average: 0.0814334
ExecutionTime = 3.47 s  ClockTime = 3 s

Time = 35

smoothSolver:  Solving for Ux, Initial residual = 0.0044879, Final residual = 1.77902e-05, No Iterations 8
smoothSolver:  Solving for Uy, Initial residual = 0.00260347, Final residual = 1.25912e-05, No Iterations 8
GAMG:  Solving for p, Initial residual = 0.00822953, Final residual = 5.21562e-05, No Iterations 5
time step continuity errors : sum local = 1.45681e-05, global = 3.25979e-17, cumulative = -2.25636e-16
smoothSolver:  Solving for nuTilda, Initial residual = 0.00480089, Final residual = 2.32297e-05, No Iterations 8
bounding nuTilda, min: -9.47863e-05 max: 0.406916 average: 0.0806676
ExecutionTime = 3.57 s  ClockTime = 3 s

forces wings output:
    sum of forces:
        pressure : (2.17748 15.4936 -1.10514e-18)
        viscous  : (0.435975 -0.0608155 3.29137e-20)
        porous   : (0 0 0)
    sum of moments:
        pressure : (-0.774678 0.108874 1.2438)
        viscous  : (0.00304077 0.0217988 -1.35717e-05)
        porous   : (0 0 0)

Time = 36

smoothSolver:  Solving for Ux, Initial residual = 0.00449577, Final residual = 1.77563e-05, No Iterations 8
smoothSolver:  Solving for Uy, Initial residual = 0.0024323, Final residual = 1.19647e-05, No Iterations 8
GAMG:  Solving for p, Initial residual = 0.00770397, Final residual = 6.64666e-05, No Iterations 5
time step continuity errors : sum local = 1.84447e-05, global = -7.83391e-17, cumulative = -3.03976e-16
smoothSolver:  Solving for nuTilda, Initial residual = 0.00461838, Final residual = 2.23463e-05, No Iterations 8
bounding nuTilda, min: -3.65257e-05 max: 0.406921 average: 0.0799166
ExecutionTime = 3.66 s  ClockTime = 3 s

Time = 37

smoothSolver:  Solving for Ux, Initial residual = 0.00453167, Final residual = 1.81721e-05, No Iterations 8
smoothSolver:  Solving for Uy, Initial residual = 0.00185455, Final residual = 9.49262e-06, No Iterations 8
GAMG:  Solving for p, Initial residual = 0.00666156, Final residual = 5.0058e-05, No Iterations 5
time step continuity errors : sum local = 1.39229e-05, global = 1.33247e-16, cumulative = -1.70729e-16
smoothSolver:  Solving for nuTilda, Initial residual = 0.00445738, Final residual = 2.15665e-05, No Iterations 8
ExecutionTime = 3.75 s  ClockTime = 3 s

Time = 38

smoothSolver:  Solving for Ux, Initial residual = 0.00444504, Final residual = 1.82075e-05, No Iterations 8
smoothSolver:  Solving for Uy, Initial residual = 0.00184804, Final residual = 9.42978e-06, No Iterations 8
GAMG:  Solving for p, Initial residual = 0.00595076, Final residual = 5.41573e-05, No Iterations 4
time step continuity errors : sum local = 1.50504e-05, global = -6.66984e-17, cumulative = -2.37427e-16
smoothSolver:  Solving for nuTilda, Initial residual = 0.00429848, Final residual = 2.07776e-05, No Iterations 8
bounding nuTilda, min: -0.000136861 max: 0.406918 average: 0.0784677
ExecutionTime = 3.84 s  ClockTime = 3 s

Time = 39

smoothSolver:  Solving for Ux, Initial residual = 0.00425375, Final residual = 1.76519e-05, No Iterations 8
smoothSolver:  Solving for Uy, Initial residual = 0.00188454, Final residual = 9.69694e-06, No Iterations 8
GAMG:  Solving for p, Initial residual = 0.00569272, Final residual = 3.88836e-05, No Iterations 5
time step continuity errors : sum local = 1.07836e-05, global = -1.66928e-16, cumulative = -4.04355e-16
smoothSolver:  Solving for nuTilda, Initial residual = 0.00415289, Final residual = 2.00742e-05, No Iterations 8
ExecutionTime = 3.93 s  ClockTime = 3 s

Time = 40

smoothSolver:  Solving for Ux, Initial residual = 0.00405938, Final residual = 1.68689e-05, No Iterations 8
smoothSolver:  Solving for Uy, Initial residual = 0.00181806, Final residual = 9.44495e-06, No Iterations 8
GAMG:  Solving for p, Initial residual = 0.00518865, Final residual = 2.2804e-05, No Iterations 5
time step continuity errors : sum local = 6.31388e-06, global = -1.47024e-16, cumulative = -5.51378e-16
smoothSolver:  Solving for nuTilda, Initial residual = 0.0040084, Final residual = 1.93607e-05, No Iterations 8
bounding nuTilda, min: -9.18278e-05 max: 0.406925 average: 0.0770813
ExecutionTime = 4.02 s  ClockTime = 4 s

forces wings output:
    sum of forces:
        pressure : (1.778 12.6512 -1.14584e-18)
        viscous  : (0.423159 -0.0590764 3.47772e-20)
        porous   : (0 0 0)
    sum of moments:
        pressure : (-0.632558 0.0889002 0.352324)
        viscous  : (0.00295382 0.021158 -3.95808e-05)
        porous   : (0 0 0)

Time = 41

smoothSolver:  Solving for Ux, Initial residual = 0.00393611, Final residual = 1.63131e-05, No Iterations 8
smoothSolver:  Solving for Uy, Initial residual = 0.00183699, Final residual = 9.55722e-06, No Iterations 8
GAMG:  Solving for p, Initial residual = 0.00474444, Final residual = 4.60624e-05, No Iterations 4
time step continuity errors : sum local = 1.27603e-05, global = -7.86703e-17, cumulative = -6.30049e-16
smoothSolver:  Solving for nuTilda, Initial residual = 0.00387789, Final residual = 1.87238e-05, No Iterations 8
bounding nuTilda, min: -0.000154583 max: 0.406932 average: 0.0764113
ExecutionTime = 4.11 s  ClockTime = 4 s

Time = 42

smoothSolver:  Solving for Ux, Initial residual = 0.00388212, Final residual = 1.61488e-05, No Iterations 8
smoothSolver:  Solving for Uy, Initial residual = 0.00163684, Final residual = 8.85283e-06, No Iterations 8
GAMG:  Solving for p, Initial residual = 0.00447707, Final residual = 2.4406e-05, No Iterations 5
time step continuity errors : sum local = 6.76841e-06, global = -1.55631e-16, cumulative = -7.85679e-16
smoothSolver:  Solving for nuTilda, Initial residual = 0.00374798, Final residual = 1.8092e-05, No Iterations 8
bounding nuTilda, min: -0.000111641 max: 0.406936 average: 0.075753
ExecutionTime = 4.2 s  ClockTime = 4 s

Time = 43

smoothSolver:  Solving for Ux, Initial residual = 0.0038573, Final residual = 1.62109e-05, No Iterations 8
smoothSolver:  Solving for Uy, Initial residual = 0.00150787, Final residual = 8.31873e-06, No Iterations 8
GAMG:  Solving for p, Initial residual = 0.00417605, Final residual = 3.9921e-05, No Iterations 4
time step continuity errors : sum local = 1.10182e-05, global = -1.05174e-16, cumulative = -8.90853e-16
smoothSolver:  Solving for nuTilda, Initial residual = 0.00362823, Final residual = 1.75178e-05, No Iterations 8
ExecutionTime = 4.29 s  ClockTime = 4 s

Time = 44

smoothSolver:  Solving for Ux, Initial residual = 0.00379052, Final residual = 1.60998e-05, No Iterations 8
smoothSolver:  Solving for Uy, Initial residual = 0.00149797, Final residual = 8.22709e-06, No Iterations 8
GAMG:  Solving for p, Initial residual = 0.0038559, Final residual = 3.09064e-05, No Iterations 4
time step continuity errors : sum local = 8.57949e-06, global = -1.15153e-16, cumulative = -1.00601e-15
smoothSolver:  Solving for nuTilda, Initial residual = 0.00351158, Final residual = 1.69504e-05, No Iterations 8
bounding nuTilda, min: -0.000154962 max: 0.406918 average: 0.0744786
ExecutionTime = 4.37 s  ClockTime = 4 s

Time = 45

smoothSolver:  Solving for Ux, Initial residual = 0.00369351, Final residual = 1.57964e-05, No Iterations 8
smoothSolver:  Solving for Uy, Initial residual = 0.00147444, Final residual = 8.11487e-06, No Iterations 8
GAMG:  Solving for p, Initial residual = 0.00361072, Final residual = 3.13226e-05, No Iterations 4
time step continuity errors : sum local = 8.68909e-06, global = -1.32076e-16, cumulative = -1.13808e-15
smoothSolver:  Solving for nuTilda, Initial residual = 0.00340428, Final residual = 1.64265e-05, No Iterations 8
ExecutionTime = 4.46 s  ClockTime = 4 s

forces wings output:
    sum of forces:
        pressure : (1.75848 12.5122 -1.19478e-18)
        viscous  : (0.409848 -0.0572708 3.78751e-20)
        porous   : (0 0 0)
    sum of moments:
        pressure : (-0.625612 0.0879241 0.251299)
        viscous  : (0.00286354 0.0204924 -6.66037e-05)
        porous   : (0 0 0)

Time = 46

smoothSolver:  Solving for Ux, Initial residual = 0.00358297, Final residual = 1.53826e-05, No Iterations 8
smoothSolver:  Solving for Uy, Initial residual = 0.00150697, Final residual = 8.36687e-06, No Iterations 8
GAMG:  Solving for p, Initial residual = 0.00355956, Final residual = 2.73372e-05, No Iterations 4
time step continuity errors : sum local = 7.52008e-06, global = -2.54155e-16, cumulative = -1.39224e-15
smoothSolver:  Solving for nuTilda, Initial residual = 0.0033006, Final residual = 1.59119e-05, No Iterations 8
bounding nuTilda, min: -0.000139865 max: 0.406879 average: 0.0732546
ExecutionTime = 4.55 s  ClockTime = 4 s

Time = 47

smoothSolver:  Solving for Ux, Initial residual = 0.00349084, Final residual = 1.50361e-05, No Iterations 8
smoothSolver:  Solving for Uy, Initial residual = 0.00148186, Final residual = 8.38005e-06, No Iterations 8
GAMG:  Solving for p, Initial residual = 0.00348146, Final residual = 3.00649e-05, No Iterations 4
time step continuity errors : sum local = 8.32308e-06, global = -2.78173e-16, cumulative = -1.67041e-15
smoothSolver:  Solving for nuTilda, Initial residual = 0.00320216, Final residual = 1.54295e-05, No Iterations 8
bounding nuTilda, min: -0.000140168 max: 0.406864 average: 0.0726608
ExecutionTime = 4.63 s  ClockTime = 4 s

Time = 48

smoothSolver:  Solving for Ux, Initial residual = 0.00342938, Final residual = 1.48338e-05, No Iterations 8
smoothSolver:  Solving for Uy, Initial residual = 0.00142954, Final residual = 8.16614e-06, No Iterations 8
GAMG:  Solving for p, Initial residual = 0.00326846, Final residual = 2.81101e-05, No Iterations 4
time step continuity errors : sum local = 7.77509e-06, global = 4.22105e-16, cumulative = -1.2483e-15
smoothSolver:  Solving for nuTilda, Initial residual = 0.00310705, Final residual = 1.49618e-05, No Iterations 8
bounding nuTilda, min: -0.000149891 max: 0.406857 average: 0.0720777
ExecutionTime = 4.72 s  ClockTime = 4 s

Time = 49

smoothSolver:  Solving for Ux, Initial residual = 0.00338425, Final residual = 1.47188e-05, No Iterations 8
smoothSolver:  Solving for Uy, Initial residual = 0.00139605, Final residual = 8.00448e-06, No Iterations 8
GAMG:  Solving for p, Initial residual = 0.00308171, Final residual = 1.99522e-05, No Iterations 4
time step continuity errors : sum local = 5.5046e-06, global = -1.64453e-17, cumulative = -1.26475e-15
smoothSolver:  Solving for nuTilda, Initial residual = 0.00301642, Final residual = 1.45173e-05, No Iterations 8
ExecutionTime = 4.81 s  ClockTime = 4 s

Time = 50

smoothSolver:  Solving for Ux, Initial residual = 0.00333266, Final residual = 1.45958e-05, No Iterations 8
smoothSolver:  Solving for Uy, Initial residual = 0.00135519, Final residual = 7.87885e-06, No Iterations 8
GAMG:  Solving for p, Initial residual = 0.00300335, Final residual = 1.99705e-05, No Iterations 4
time step continuity errors : sum local = 5.52742e-06, global = -2.21676e-16, cumulative = -1.48643e-15
smoothSolver:  Solving for nuTilda, Initial residual = 0.0029289, Final residual = 1.40878e-05, No Iterations 8
bounding nuTilda, min: -0.000157114 max: 0.406857 average: 0.0709451
ExecutionTime = 4.89 s  ClockTime = 4 s

forces wings output:
    sum of forces:
        pressure : (1.85015 13.1645 -1.22658e-18)
        viscous  : (0.397496 -0.0555557 3.98712e-20)
        porous   : (0 0 0)
    sum of moments:
        pressure : (-0.658224 0.0925074 0.391894)
        viscous  : (0.00277778 0.0198748 -7.82404e-05)
        porous   : (0 0 0)

Time = 51

smoothSolver:  Solving for Ux, Initial residual = 0.00326529, Final residual = 1.4379e-05, No Iterations 8
smoothSolver:  Solving for Uy, Initial residual = 0.00134808, Final residual = 7.88021e-06, No Iterations 8
GAMG:  Solving for p, Initial residual = 0.00289795, Final residual = 1.49467e-05, No Iterations 4
time step continuity errors : sum local = 4.13312e-06, global = -8.1657e-17, cumulative = -1.56808e-15
smoothSolver:  Solving for nuTilda, Initial residual = 0.002846, Final residual = 1.36792e-05, No Iterations 8
ExecutionTime = 4.98 s  ClockTime = 5 s

Time = 52

smoothSolver:  Solving for Ux, Initial residual = 0.00320018, Final residual = 1.41247e-05, No Iterations 8
smoothSolver:  Solving for Uy, Initial residual = 0.0013619, Final residual = 7.9372e-06, No Iterations 8
GAMG:  Solving for p, Initial residual = 0.00280428, Final residual = 1.46163e-05, No Iterations 4
time step continuity errors : sum local = 4.03432e-06, global = -2.07234e-16, cumulative = -1.77532e-15
smoothSolver:  Solving for nuTilda, Initial residual = 0.00276715, Final residual = 1.32883e-05, No Iterations 8
bounding nuTilda, min: -0.000162236 max: 0.406856 average: 0.0698539
ExecutionTime = 5.07 s  ClockTime = 5 s

Time = 53

smoothSolver:  Solving for Ux, Initial residual = 0.00314011, Final residual = 1.38796e-05, No Iterations 8
smoothSolver:  Solving for Uy, Initial residual = 0.0013588, Final residual = 7.95485e-06, No Iterations 8
GAMG:  Solving for p, Initial residual = 0.00270293, Final residual = 1.65083e-05, No Iterations 4
time step continuity errors : sum local = 4.57165e-06, global = 1.07764e-16, cumulative = -1.66755e-15
smoothSolver:  Solving for nuTilda, Initial residual = 0.00269182, Final residual = 1.29162e-05, No Iterations 8
bounding nuTilda, min: -7.71157e-05 max: 0.406853 average: 0.0693231
ExecutionTime = 5.16 s  ClockTime = 5 s

Time = 54

smoothSolver:  Solving for Ux, Initial residual = 0.00308793, Final residual = 1.36797e-05, No Iterations 8
smoothSolver:  Solving for Uy, Initial residual = 0.00133959, Final residual = 7.9146e-06, No Iterations 8
GAMG:  Solving for p, Initial residual = 0.00259615, Final residual = 1.7943e-05, No Iterations 4
time step continuity errors : sum local = 4.95883e-06, global = 5.30221e-18, cumulative = -1.66225e-15
smoothSolver:  Solving for nuTilda, Initial residual = 0.00261981, Final residual = 1.25585e-05, No Iterations 8
bounding nuTilda, min: -0.000165554 max: 0.40685 average: 0.0688016
ExecutionTime = 5.25 s  ClockTime = 5 s

Time = 55

smoothSolver:  Solving for Ux, Initial residual = 0.00304079, Final residual = 1.35184e-05, No Iterations 8
smoothSolver:  Solving for Uy, Initial residual = 0.00131727, Final residual = 7.83745e-06, No Iterations 8
GAMG:  Solving for p, Initial residual = 0.00250525, Final residual = 1.98567e-05, No Iterations 4
time step continuity errors : sum local = 5.49785e-06, global = -3.76242e-16, cumulative = -2.03849e-15
smoothSolver:  Solving for nuTilda, Initial residual = 0.00254924, Final residual = 1.22128e-05, No Iterations 8
ExecutionTime = 5.33 s  ClockTime = 5 s

forces wings output:
    sum of forces:
        pressure : (1.88398 13.4052 -1.25945e-18)
        viscous  : (0.385283 -0.0538371 4.20398e-20)
        porous   : (0 0 0)
    sum of moments:
        pressure : (-0.67026 0.0941989 0.390938)
        viscous  : (0.00269186 0.0192641 -8.32289e-05)
        porous   : (0 0 0)

Time = 56

smoothSolver:  Solving for Ux, Initial residual = 0.00299498, Final residual = 1.33675e-05, No Iterations 8
smoothSolver:  Solving for Uy, Initial residual = 0.00129979, Final residual = 7.76362e-06, No Iterations 8
GAMG:  Solving for p, Initial residual = 0.00241717, Final residual = 1.31044e-05, No Iterations 4
time step continuity errors : sum local = 3.61327e-06, global = -6.39779e-17, cumulative = -2.10247e-15
smoothSolver:  Solving for nuTilda, Initial residual = 0.00248178, Final residual = 1.188e-05, No Iterations 8
bounding nuTilda, min: -0.000166742 max: 0.406848 average: 0.0677862
ExecutionTime = 5.42 s  ClockTime = 5 s

Time = 57

smoothSolver:  Solving for Ux, Initial residual = 0.00295013, Final residual = 1.32094e-05, No Iterations 8
smoothSolver:  Solving for Uy, Initial residual = 0.00128904, Final residual = 7.71904e-06, No Iterations 8
GAMG:  Solving for p, Initial residual = 0.00233387, Final residual = 1.03683e-05, No Iterations 4
time step continuity errors : sum local = 2.86406e-06, global = -1.28856e-17, cumulative = -2.11536e-15
smoothSolver:  Solving for nuTilda, Initial residual = 0.00241771, Final residual = 1.15614e-05, No Iterations 8
ExecutionTime = 5.51 s  ClockTime = 5 s

Time = 58

smoothSolver:  Solving for Ux, Initial residual = 0.00290384, Final residual = 1.30265e-05, No Iterations 8
smoothSolver:  Solving for Uy, Initial residual = 0.00128506, Final residual = 7.70206e-06, No Iterations 8
GAMG:  Solving for p, Initial residual = 0.00227152, Final residual = 1.08284e-05, No Iterations 4
time step continuity errors : sum local = 2.99102e-06, global = -7.96273e-17, cumulative = -2.19498e-15
smoothSolver:  Solving for nuTilda, Initial residual = 0.00235627, Final residual = 1.12559e-05, No Iterations 8
bounding nuTilda, min: -0.000166394 max: 0.406847 average: 0.0668057
ExecutionTime = 5.59 s  ClockTime = 5 s

Time = 59

smoothSolver:  Solving for Ux, Initial residual = 0.00285822, Final residual = 1.28319e-05, No Iterations 8
smoothSolver:  Solving for Uy, Initial residual = 0.00128098, Final residual = 7.68981e-06, No Iterations 8
GAMG:  Solving for p, Initial residual = 0.00218273, Final residual = 1.21041e-05, No Iterations 4
time step continuity errors : sum local = 3.33246e-06, global = 1.90849e-16, cumulative = -2.00413e-15
smoothSolver:  Solving for nuTilda, Initial residual = 0.002297, Final residual = 1.09622e-05, No Iterations 8
ExecutionTime = 5.68 s  ClockTime = 5 s

Time = 60

smoothSolver:  Solving for Ux, Initial residual = 0.00281672, Final residual = 1.26522e-05, No Iterations 8
smoothSolver:  Solving for Uy, Initial residual = 0.00127425, Final residual = 7.6708e-06, No Iterations 8
GAMG:  Solving for p, Initial residual = 0.00210188, Final residual = 1.30325e-05, No Iterations 4
time step continuity errors : sum local = 3.58509e-06, global = -4.31501e-17, cumulative = -2.04728e-15
smoothSolver:  Solving for nuTilda, Initial residual = 0.00223984, Final residual = 1.06781e-05, No Iterations 8
bounding nuTilda, min: -0.000164723 max: 0.406845 average: 0.0658581
ExecutionTime = 5.77 s  ClockTime = 5 s

forces wings output:
    sum of forces:
        pressure : (1.91908 13.655 -1.27484e-18)
        viscous  : (0.373408 -0.0521589 4.35373e-20)
        porous   : (0 0 0)
    sum of moments:
        pressure : (-0.682748 0.095954 0.379886)
        viscous  : (0.00260795 0.0186704 -8.6792e-05)
        porous   : (0 0 0)

Time = 61

smoothSolver:  Solving for Ux, Initial residual = 0.00277855, Final residual = 1.24906e-05, No Iterations 8
smoothSolver:  Solving for Uy, Initial residual = 0.00126284, Final residual = 7.63241e-06, No Iterations 8
GAMG:  Solving for p, Initial residual = 0.00203646, Final residual = 1.45133e-05, No Iterations 4
time step continuity errors : sum local = 4.00056e-06, global = -6.2139e-17, cumulative = -2.10942e-15
smoothSolver:  Solving for nuTilda, Initial residual = 0.00218452, Final residual = 1.04023e-05, No Iterations 8
ExecutionTime = 5.86 s  ClockTime = 5 s

Time = 62

smoothSolver:  Solving for Ux, Initial residual = 0.00274099, Final residual = 1.23341e-05, No Iterations 8
smoothSolver:  Solving for Uy, Initial residual = 0.00125155, Final residual = 7.58652e-06, No Iterations 8
GAMG:  Solving for p, Initial residual = 0.00198515, Final residual = 1.30164e-05, No Iterations 4
time step continuity errors : sum local = 3.59072e-06, global = 2.04642e-16, cumulative = -1.90478e-15
smoothSolver:  Solving for nuTilda, Initial residual = 0.00213078, Final residual = 1.01357e-05, No Iterations 8
bounding nuTilda, min: -0.0001614 max: 0.406843 average: 0.0649419
ExecutionTime = 5.95 s  ClockTime = 5 s

Time = 63

smoothSolver:  Solving for Ux, Initial residual = 0.00270666, Final residual = 1.21935e-05, No Iterations 8
smoothSolver:  Solving for Uy, Initial residual = 0.00124048, Final residual = 7.53545e-06, No Iterations 8
GAMG:  Solving for p, Initial residual = 0.00192503, Final residual = 1.3563e-05, No Iterations 4
time step continuity errors : sum local = 3.73016e-06, global = -2.24134e-16, cumulative = -2.12892e-15
smoothSolver:  Solving for nuTilda, Initial residual = 0.00207864, Final residual = 9.8777e-06, No Iterations 8
ExecutionTime = 6.03 s  ClockTime = 6 s

Time = 64

smoothSolver:  Solving for Ux, Initial residual = 0.00267301, Final residual = 1.20507e-05, No Iterations 8
smoothSolver:  Solving for Uy, Initial residual = 0.0012318, Final residual = 7.4932e-06, No Iterations 8
GAMG:  Solving for p, Initial residual = 0.00186698, Final residual = 1.13202e-05, No Iterations 4
time step continuity errors : sum local = 3.1201e-06, global = 2.20525e-16, cumulative = -1.90839e-15
smoothSolver:  Solving for nuTilda, Initial residual = 0.00202818, Final residual = 9.62868e-06, No Iterations 8
bounding nuTilda, min: -0.000156914 max: 0.406844 average: 0.0640556
ExecutionTime = 6.12 s  ClockTime = 6 s

Time = 65

smoothSolver:  Solving for Ux, Initial residual = 0.00263816, Final residual = 1.18947e-05, No Iterations 8
smoothSolver:  Solving for Uy, Initial residual = 0.0012253, Final residual = 7.46215e-06, No Iterations 8
GAMG:  Solving for p, Initial residual = 0.00180055, Final residual = 1.11534e-05, No Iterations 4
time step continuity errors : sum local = 3.07151e-06, global = 5.54173e-17, cumulative = -1.85297e-15
smoothSolver:  Solving for nuTilda, Initial residual = 0.00197913, Final residual = 9.38687e-06, No Iterations 8
ExecutionTime = 6.2 s  ClockTime = 6 s

forces wings output:
    sum of forces:
        pressure : (1.97447 14.0491 -1.28859e-18)
        viscous  : (0.361887 -0.0505342 4.49202e-20)
        porous   : (0 0 0)
    sum of moments:
        pressure : (-0.702454 0.0987234 0.421306)
        viscous  : (0.00252671 0.0180943 -8.80184e-05)
        porous   : (0 0 0)

Time = 66

smoothSolver:  Solving for Ux, Initial residual = 0.00260424, Final residual = 1.17393e-05, No Iterations 8
smoothSolver:  Solving for Uy, Initial residual = 0.00121913, Final residual = 7.43299e-06, No Iterations 8
GAMG:  Solving for p, Initial residual = 0.00175103, Final residual = 1.24337e-05, No Iterations 4
time step continuity errors : sum local = 3.41882e-06, global = -4.82425e-17, cumulative = -1.90122e-15
smoothSolver:  Solving for nuTilda, Initial residual = 0.00193213, Final residual = 9.15183e-06, No Iterations 8
bounding nuTilda, min: -0.000151296 max: 0.406845 average: 0.0631979
ExecutionTime = 6.3 s  ClockTime = 6 s

Time = 67

smoothSolver:  Solving for Ux, Initial residual = 0.00257224, Final residual = 1.15913e-05, No Iterations 8
smoothSolver:  Solving for Uy, Initial residual = 0.00121207, Final residual = 7.39876e-06, No Iterations 8
GAMG:  Solving for p, Initial residual = 0.00169962, Final residual = 1.27554e-05, No Iterations 4
time step continuity errors : sum local = 3.51492e-06, global = 2.21715e-17, cumulative = -1.87904e-15
smoothSolver:  Solving for nuTilda, Initial residual = 0.00188649, Final residual = 8.92627e-06, No Iterations 8
ExecutionTime = 6.39 s  ClockTime = 6 s

Time = 68

smoothSolver:  Solving for Ux, Initial residual = 0.00254224, Final residual = 1.14531e-05, No Iterations 8
smoothSolver:  Solving for Uy, Initial residual = 0.00120385, Final residual = 7.35651e-06, No Iterations 8
GAMG:  Solving for p, Initial residual = 0.00166254, Final residual = 1.44354e-05, No Iterations 4
time step continuity errors : sum local = 3.96637e-06, global = 1.70746e-16, cumulative = -1.7083e-15
smoothSolver:  Solving for nuTilda, Initial residual = 0.00184235, Final residual = 8.70907e-06, No Iterations 8
bounding nuTilda, min: -0.000144503 max: 0.406846 average: 0.0623674
ExecutionTime = 6.48 s  ClockTime = 6 s

Time = 69

smoothSolver:  Solving for Ux, Initial residual = 0.00251404, Final residual = 1.13237e-05, No Iterations 8
smoothSolver:  Solving for Uy, Initial residual = 0.00119498, Final residual = 7.30884e-06, No Iterations 8
GAMG:  Solving for p, Initial residual = 0.00161908, Final residual = 1.36231e-05, No Iterations 4
time step continuity errors : sum local = 3.74713e-06, global = 9.14685e-17, cumulative = -1.61683e-15
smoothSolver:  Solving for nuTilda, Initial residual = 0.00179956, Final residual = 8.49942e-06, No Iterations 8
ExecutionTime = 6.56 s  ClockTime = 6 s

Time = 70

smoothSolver:  Solving for Ux, Initial residual = 0.00248626, Final residual = 1.11949e-05, No Iterations 8
smoothSolver:  Solving for Uy, Initial residual = 0.0011865, Final residual = 7.26256e-06, No Iterations 8
GAMG:  Solving for p, Initial residual = 0.00158355, Final residual = 1.35486e-05, No Iterations 4
time step continuity errors : sum local = 3.71752e-06, global = -4.66163e-17, cumulative = -1.66344e-15
smoothSolver:  Solving for nuTilda, Initial residual = 0.00175823, Final residual = 8.29706e-06, No Iterations 8
bounding nuTilda, min: -0.000136596 max: 0.406847 average: 0.0615628
ExecutionTime = 6.65 s  ClockTime = 6 s

forces wings output:
    sum of forces:
        pressure : (2.03031 14.4464 -1.29473e-18)
        viscous  : (0.350682 -0.0489575 4.59955e-20)
        porous   : (0 0 0)
    sum of moments:
        pressure : (-0.722319 0.101515 0.461164)
        viscous  : (0.00244787 0.0175341 -8.7987e-05)
        porous   : (0 0 0)

Time = 71

smoothSolver:  Solving for Ux, Initial residual = 0.00245834, Final residual = 1.10631e-05, No Iterations 8
smoothSolver:  Solving for Uy, Initial residual = 0.00117895, Final residual = 7.22028e-06, No Iterations 8
GAMG:  Solving for p, Initial residual = 0.00154173, Final residual = 1.28957e-05, No Iterations 4
time step continuity errors : sum local = 3.54416e-06, global = 9.66059e-18, cumulative = -1.65378e-15
smoothSolver:  Solving for nuTilda, Initial residual = 0.00171827, Final residual = 8.1013e-06, No Iterations 8
ExecutionTime = 6.74 s  ClockTime = 6 s

Time = 72

smoothSolver:  Solving for Ux, Initial residual = 0.00243093, Final residual = 1.0932e-05, No Iterations 8
smoothSolver:  Solving for Uy, Initial residual = 0.00117188, Final residual = 7.17926e-06, No Iterations 8
GAMG:  Solving for p, Initial residual = 0.00150853, Final residual = 1.329e-05, No Iterations 4
time step continuity errors : sum local = 3.65223e-06, global = 1.77013e-16, cumulative = -1.47677e-15
smoothSolver:  Solving for nuTilda, Initial residual = 0.00167965, Final residual = 7.91207e-06, No Iterations 8
bounding nuTilda, min: -0.000127615 max: 0.406848 average: 0.0607828
ExecutionTime = 6.83 s  ClockTime = 6 s

Time = 73

smoothSolver:  Solving for Ux, Initial residual = 0.00240423, Final residual = 1.08027e-05, No Iterations 8
smoothSolver:  Solving for Uy, Initial residual = 0.00116504, Final residual = 7.13835e-06, No Iterations 8
GAMG:  Solving for p, Initial residual = 0.00147084, Final residual = 1.3767e-05, No Iterations 4
time step continuity errors : sum local = 3.78218e-06, global = 1.24107e-19, cumulative = -1.47665e-15
smoothSolver:  Solving for nuTilda, Initial residual = 0.0016425, Final residual = 7.72975e-06, No Iterations 8
ExecutionTime = 6.92 s  ClockTime = 6 s

Time = 74

smoothSolver:  Solving for Ux, Initial residual = 0.00237927, Final residual = 1.06815e-05, No Iterations 8
smoothSolver:  Solving for Uy, Initial residual = 0.00115739, Final residual = 7.09247e-06, No Iterations 8
GAMG:  Solving for p, Initial residual = 0.00144322, Final residual = 7.12792e-06, No Iterations 5
time step continuity errors : sum local = 1.96327e-06, global = -1.53799e-16, cumulative = -1.63045e-15
smoothSolver:  Solving for nuTilda, Initial residual = 0.00160667, Final residual = 7.55362e-06, No Iterations 8
bounding nuTilda, min: -0.000117482 max: 0.406849 average: 0.0600263
ExecutionTime = 7.01 s  ClockTime = 7 s

Time = 75

smoothSolver:  Solving for Ux, Initial residual = 0.00235564, Final residual = 1.05679e-05, No Iterations 8
smoothSolver:  Solving for Uy, Initial residual = 0.00114899, Final residual = 7.04213e-06, No Iterations 8
GAMG:  Solving for p, Initial residual = 0.00141354, Final residual = 8.46605e-06, No Iterations 5
time step continuity errors : sum local = 2.34639e-06, global = 1.90684e-17, cumulative = -1.61138e-15
smoothSolver:  Solving for nuTilda, Initial residual = 0.00157175, Final residual = 7.38179e-06, No Iterations 8
ExecutionTime = 7.11 s  ClockTime = 7 s

forces wings output:
    sum of forces:
        pressure : (2.08328 14.8233 -1.2987e-18)
        viscous  : (0.339768 -0.0474281 4.69473e-20)
        porous   : (0 0 0)
    sum of moments:
        pressure : (-0.741164 0.104164 0.484373)
        viscous  : (0.00237141 0.0169884 -8.66563e-05)
        porous   : (0 0 0)

Time = 76

smoothSolver:  Solving for Ux, Initial residual = 0.0023317, Final residual = 1.04497e-05, No Iterations 8
smoothSolver:  Solving for Uy, Initial residual = 0.00114147, Final residual = 6.9951e-06, No Iterations 8
GAMG:  Solving for p, Initial residual = 0.00139032, Final residual = 7.24963e-06, No Iterations 5
time step continuity errors : sum local = 1.99689e-06, global = -2.1668e-17, cumulative = -1.63305e-15
smoothSolver:  Solving for nuTilda, Initial residual = 0.0015379, Final residual = 7.21404e-06, No Iterations 8
bounding nuTilda, min: -0.00010654 max: 0.40685 average: 0.0592921
ExecutionTime = 7.21 s  ClockTime = 7 s

Time = 77

smoothSolver:  Solving for Ux, Initial residual = 0.0023088, Final residual = 1.03371e-05, No Iterations 8
smoothSolver:  Solving for Uy, Initial residual = 0.00113351, Final residual = 6.94596e-06, No Iterations 8
GAMG:  Solving for p, Initial residual = 0.001363, Final residual = 8.11742e-06, No Iterations 5
time step continuity errors : sum local = 2.25102e-06, global = -7.21601e-17, cumulative = -1.70521e-15
smoothSolver:  Solving for nuTilda, Initial residual = 0.00150492, Final residual = 7.05166e-06, No Iterations 8
ExecutionTime = 7.3 s  ClockTime = 7 s

Time = 78

smoothSolver:  Solving for Ux, Initial residual = 0.00228587, Final residual = 1.02217e-05, No Iterations 8
smoothSolver:  Solving for Uy, Initial residual = 0.00112626, Final residual = 6.89923e-06, No Iterations 8
GAMG:  Solving for p, Initial residual = 0.00134261, Final residual = 6.96771e-06, No Iterations 5
time step continuity errors : sum local = 1.92628e-06, global = -7.99854e-17, cumulative = -1.78519e-15
smoothSolver:  Solving for nuTilda, Initial residual = 0.0014729, Final residual = 6.89475e-06, No Iterations 8
bounding nuTilda, min: -9.43963e-05 max: 0.406851 average: 0.0585795
ExecutionTime = 7.39 s  ClockTime = 7 s

Time = 79

smoothSolver:  Solving for Ux, Initial residual = 0.00226423, Final residual = 1.01132e-05, No Iterations 8
smoothSolver:  Solving for Uy, Initial residual = 0.00111834, Final residual = 6.84883e-06, No Iterations 8
GAMG:  Solving for p, Initial residual = 0.00131928, Final residual = 6.43725e-06, No Iterations 5
time step continuity errors : sum local = 1.78198e-06, global = 1.22384e-16, cumulative = -1.66281e-15
smoothSolver:  Solving for nuTilda, Initial residual = 0.00144178, Final residual = 6.74303e-06, No Iterations 8
ExecutionTime = 7.48 s  ClockTime = 7 s

Time = 80

smoothSolver:  Solving for Ux, Initial residual = 0.00224333, Final residual = 1.00064e-05, No Iterations 8
smoothSolver:  Solving for Uy, Initial residual = 0.00111037, Final residual = 6.79731e-06, No Iterations 8
GAMG:  Solving for p, Initial residual = 0.00130266, Final residual = 6.62229e-06, No Iterations 5
time step continuity errors : sum local = 1.8248e-06, global = 2.90232e-16, cumulative = -1.37258e-15
smoothSolver:  Solving for nuTilda, Initial residual = 0.0014117, Final residual = 6.59614e-06, No Iterations 8
bounding nuTilda, min: -8.09528e-05 max: 0.406853 average: 0.0578874
ExecutionTime = 7.57 s  ClockTime = 7 s

forces wings output:
    sum of forces:
        pressure : (2.13947 15.2231 -1.30361e-18)
        viscous  : (0.32923 -0.0459615 4.78888e-20)
        porous   : (0 0 0)
    sum of moments:
        pressure : (-0.761156 0.106974 0.507111)
        viscous  : (0.00229807 0.0164615 -8.31803e-05)
        porous   : (0 0 0)

Time = 81

smoothSolver:  Solving for Ux, Initial residual = 0.00222244, Final residual = 9.89982e-06, No Iterations 8
smoothSolver:  Solving for Uy, Initial residual = 0.00110267, Final residual = 6.74597e-06, No Iterations 8
GAMG:  Solving for p, Initial residual = 0.00128419, Final residual = 8.40001e-06, No Iterations 5
time step continuity errors : sum local = 2.33368e-06, global = -2.08506e-16, cumulative = -1.58108e-15
smoothSolver:  Solving for nuTilda, Initial residual = 0.00138252, Final residual = 6.45363e-06, No Iterations 8
ExecutionTime = 7.68 s  ClockTime = 7 s

Time = 82

smoothSolver:  Solving for Ux, Initial residual = 0.00220148, Final residual = 9.79155e-06, No Iterations 8
smoothSolver:  Solving for Uy, Initial residual = 0.0010954, Final residual = 6.69605e-06, No Iterations 8
GAMG:  Solving for p, Initial residual = 0.00126918, Final residual = 7.7957e-06, No Iterations 5
time step continuity errors : sum local = 2.16813e-06, global = -2.878e-16, cumulative = -1.86888e-15
smoothSolver:  Solving for nuTilda, Initial residual = 0.00135402, Final residual = 6.31467e-06, No Iterations 8
bounding nuTilda, min: -6.6731e-05 max: 0.406855 average: 0.0572151
ExecutionTime = 7.77 s  ClockTime = 7 s

Time = 83

smoothSolver:  Solving for Ux, Initial residual = 0.00218171, Final residual = 9.69108e-06, No Iterations 8
smoothSolver:  Solving for Uy, Initial residual = 0.00108726, Final residual = 6.64223e-06, No Iterations 8
GAMG:  Solving for p, Initial residual = 0.00125454, Final residual = 5.84159e-06, No Iterations 5
time step continuity errors : sum local = 1.61516e-06, global = 9.67641e-17, cumulative = -1.77212e-15
smoothSolver:  Solving for nuTilda, Initial residual = 0.00132628, Final residual = 6.17927e-06, No Iterations 8
ExecutionTime = 7.87 s  ClockTime = 7 s

Time = 84

smoothSolver:  Solving for Ux, Initial residual = 0.00216329, Final residual = 9.59804e-06, No Iterations 8
smoothSolver:  Solving for Uy, Initial residual = 0.00107823, Final residual = 6.58408e-06, No Iterations 8
GAMG:  Solving for p, Initial residual = 0.00124395, Final residual = 5.08785e-06, No Iterations 5
time step continuity errors : sum local = 1.40376e-06, global = -1.23688e-16, cumulative = -1.89581e-15
smoothSolver:  Solving for nuTilda, Initial residual = 0.00129923, Final residual = 6.04717e-06, No Iterations 8
bounding nuTilda, min: -5.14417e-05 max: 0.406858 average: 0.0565618
ExecutionTime = 7.96 s  ClockTime = 7 s

Time = 85

smoothSolver:  Solving for Ux, Initial residual = 0.00214471, Final residual = 9.50319e-06, No Iterations 8
smoothSolver:  Solving for Uy, Initial residual = 0.0010697, Final residual = 6.52705e-06, No Iterations 8
GAMG:  Solving for p, Initial residual = 0.00123147, Final residual = 8.12817e-06, No Iterations 5
time step continuity errors : sum local = 2.26297e-06, global = -1.64132e-16, cumulative = -2.05994e-15
smoothSolver:  Solving for nuTilda, Initial residual = 0.00127303, Final residual = 5.91858e-06, No Iterations 8
ExecutionTime = 8.05 s  ClockTime = 8 s

forces wings output:
    sum of forces:
        pressure : (2.19734 15.6349 -1.30284e-18)
        viscous  : (0.319107 -0.0445623 4.8572e-20)
        porous   : (0 0 0)
    sum of moments:
        pressure : (-0.781743 0.109867 0.529211)
        viscous  : (0.00222811 0.0159553 -7.74178e-05)
        porous   : (0 0 0)

Time = 86

smoothSolver:  Solving for Ux, Initial residual = 0.00212496, Final residual = 9.39996e-06, No Iterations 8
smoothSolver:  Solving for Uy, Initial residual = 0.00106251, Final residual = 6.47486e-06, No Iterations 8
GAMG:  Solving for p, Initial residual = 0.00121398, Final residual = 7.45369e-06, No Iterations 5
time step continuity errors : sum local = 2.07525e-06, global = 2.00049e-16, cumulative = -1.85989e-15
smoothSolver:  Solving for nuTilda, Initial residual = 0.00124763, Final residual = 5.79356e-06, No Iterations 8
bounding nuTilda, min: -3.53796e-05 max: 0.406861 average: 0.0559268
ExecutionTime = 8.15 s  ClockTime = 8 s

Time = 87

smoothSolver:  Solving for Ux, Initial residual = 0.00210593, Final residual = 9.30425e-06, No Iterations 8
smoothSolver:  Solving for Uy, Initial residual = 0.00105435, Final residual = 6.41929e-06, No Iterations 8
GAMG:  Solving for p, Initial residual = 0.00119285, Final residual = 5.4826e-06, No Iterations 5
time step continuity errors : sum local = 1.51127e-06, global = 7.92944e-17, cumulative = -1.78059e-15
smoothSolver:  Solving for nuTilda, Initial residual = 0.00122286, Final residual = 5.67205e-06, No Iterations 8
ExecutionTime = 8.25 s  ClockTime = 8 s

Time = 88

smoothSolver:  Solving for Ux, Initial residual = 0.00208843, Final residual = 9.21687e-06, No Iterations 8
smoothSolver:  Solving for Uy, Initial residual = 0.00104503, Final residual = 6.35859e-06, No Iterations 8
GAMG:  Solving for p, Initial residual = 0.0011787, Final residual = 7.88083e-06, No Iterations 5
time step continuity errors : sum local = 2.19453e-06, global = 1.74931e-16, cumulative = -1.60566e-15
smoothSolver:  Solving for nuTilda, Initial residual = 0.00119874, Final residual = 5.55424e-06, No Iterations 8
bounding nuTilda, min: -1.83538e-05 max: 0.406864 average: 0.0553094
ExecutionTime = 8.34 s  ClockTime = 8 s

Time = 89

smoothSolver:  Solving for Ux, Initial residual = 0.00207059, Final residual = 9.12325e-06, No Iterations 8
smoothSolver:  Solving for Uy, Initial residual = 0.00103679, Final residual = 6.30078e-06, No Iterations 8
GAMG:  Solving for p, Initial residual = 0.00116318, Final residual = 4.97028e-06, No Iterations 5
time step continuity errors : sum local = 1.3707e-06, global = -2.11296e-16, cumulative = -1.81696e-15
smoothSolver:  Solving for nuTilda, Initial residual = 0.00117536, Final residual = 5.4402e-06, No Iterations 8
ExecutionTime = 8.43 s  ClockTime = 8 s

Time = 90

smoothSolver:  Solving for Ux, Initial residual = 0.00205377, Final residual = 9.03556e-06, No Iterations 8
smoothSolver:  Solving for Uy, Initial residual = 0.00102786, Final residual = 6.23978e-06, No Iterations 8
GAMG:  Solving for p, Initial residual = 0.00115186, Final residual = 7.74894e-06, No Iterations 5
time step continuity errors : sum local = 2.15593e-06, global = -1.68018e-16, cumulative = -1.98498e-15
smoothSolver:  Solving for nuTilda, Initial residual = 0.0011528, Final residual = 5.32911e-06, No Iterations 8
bounding nuTilda, min: -7.11867e-07 max: 0.406868 average: 0.0547088
ExecutionTime = 8.52 s  ClockTime = 8 s

forces wings output:
    sum of forces:
        pressure : (2.25691 16.0588 -1.30462e-18)
        viscous  : (0.309777 -0.0432962 4.92182e-20)
        porous   : (0 0 0)
    sum of moments:
        pressure : (-0.802938 0.112846 0.551458)
        viscous  : (0.00216481 0.0154889 -6.63676e-05)
        porous   : (0 0 0)

Time = 91

smoothSolver:  Solving for Ux, Initial residual = 0.00203606, Final residual = 8.94128e-06, No Iterations 8
smoothSolver:  Solving for Uy, Initial residual = 0.00102018, Final residual = 6.18288e-06, No Iterations 8
GAMG:  Solving for p, Initial residual = 0.00113618, Final residual = 5.78168e-06, No Iterations 5
time step continuity errors : sum local = 1.6009e-06, global = -1.46311e-16, cumulative = -2.13129e-15
smoothSolver:  Solving for nuTilda, Initial residual = 0.00113064, Final residual = 5.22079e-06, No Iterations 8
ExecutionTime = 8.62 s  ClockTime = 8 s

Time = 92

smoothSolver:  Solving for Ux, Initial residual = 0.00201927, Final residual = 8.85428e-06, No Iterations 8
smoothSolver:  Solving for Uy, Initial residual = 0.00101169, Final residual = 6.12283e-06, No Iterations 8
GAMG:  Solving for p, Initial residual = 0.00112464, Final residual = 6.23036e-06, No Iterations 5
time step continuity errors : sum local = 1.72497e-06, global = 7.08179e-17, cumulative = -2.06047e-15
smoothSolver:  Solving for nuTilda, Initial residual = 0.00110898, Final residual = 5.11571e-06, No Iterations 8
ExecutionTime = 8.71 s  ClockTime = 8 s

Time = 93

smoothSolver:  Solving for Ux, Initial residual = 0.0020028, Final residual = 8.76821e-06, No Iterations 8
smoothSolver:  Solving for Uy, Initial residual = 0.00100319, Final residual = 6.06226e-06, No Iterations 8
GAMG:  Solving for p, Initial residual = 0.00111035, Final residual = 7.7214e-06, No Iterations 5
time step continuity errors : sum local = 2.14868e-06, global = 9.06421e-18, cumulative = -2.0514e-15
smoothSolver:  Solving for nuTilda, Initial residual = 0.00108787, Final residual = 5.01373e-06, No Iterations 8
bounding nuTilda, min: -8.06995e-05 max: 0.406874 average: 0.0538382
ExecutionTime = 8.8 s  ClockTime = 8 s

Time = 94

smoothSolver:  Solving for Ux, Initial residual = 0.00198618, Final residual = 8.67988e-06, No Iterations 8
smoothSolver:  Solving for Uy, Initial residual = 0.000995086, Final residual = 6.00256e-06, No Iterations 8
GAMG:  Solving for p, Initial residual = 0.00110201, Final residual = 6.08989e-06, No Iterations 5
time step continuity errors : sum local = 1.68843e-06, global = 1.0786e-16, cumulative = -1.94355e-15
smoothSolver:  Solving for nuTilda, Initial residual = 0.00106732, Final residual = 4.91438e-06, No Iterations 8
ExecutionTime = 8.89 s  ClockTime = 8 s

Time = 95

smoothSolver:  Solving for Ux, Initial residual = 0.00197068, Final residual = 8.59847e-06, No Iterations 8
smoothSolver:  Solving for Uy, Initial residual = 0.000985961, Final residual = 5.93867e-06, No Iterations 8
GAMG:  Solving for p, Initial residual = 0.00109886, Final residual = 5.82532e-06, No Iterations 5
time step continuity errors : sum local = 1.61477e-06, global = -1.97801e-16, cumulative = -2.14135e-15
smoothSolver:  Solving for nuTilda, Initial residual = 0.00104727, Final residual = 4.81753e-06, No Iterations 8
ExecutionTime = 8.98 s  ClockTime = 9 s

forces wings output:
    sum of forces:
        pressure : (2.31749 16.4898 -1.30815e-18)
        viscous  : (0.301407 -0.0421512 4.97939e-20)
        porous   : (0 0 0)
    sum of moments:
        pressure : (-0.82449 0.115875 0.572788)
        viscous  : (0.00210756 0.0150703 -5.87826e-05)
        porous   : (0 0 0)

Time = 96

smoothSolver:  Solving for Ux, Initial residual = 0.00195542, Final residual = 8.51888e-06, No Iterations 8
smoothSolver:  Solving for Uy, Initial residual = 0.000976559, Final residual = 5.87358e-06, No Iterations 8
GAMG:  Solving for p, Initial residual = 0.00108893, Final residual = 7.33906e-06, No Iterations 5
time step continuity errors : sum local = 2.04599e-06, global = -9.47226e-17, cumulative = -2.23607e-15
smoothSolver:  Solving for nuTilda, Initial residual = 0.0010277, Final residual = 4.72293e-06, No Iterations 8
bounding nuTilda, min: -1.03565e-05 max: 0.40688 average: 0.0530021
ExecutionTime = 9.08 s  ClockTime = 9 s

Time = 97

smoothSolver:  Solving for Ux, Initial residual = 0.00193976, Final residual = 8.43618e-06, No Iterations 8
smoothSolver:  Solving for Uy, Initial residual = 0.000967816, Final residual = 5.81042e-06, No Iterations 8
GAMG:  Solving for p, Initial residual = 0.00107925, Final residual = 5.89326e-06, No Iterations 5
time step continuity errors : sum local = 1.63449e-06, global = 1.90566e-16, cumulative = -2.0455e-15
smoothSolver:  Solving for nuTilda, Initial residual = 0.00100857, Final residual = 4.63043e-06, No Iterations 8
ExecutionTime = 9.17 s  ClockTime = 9 s

Time = 98

smoothSolver:  Solving for Ux, Initial residual = 0.00192462, Final residual = 8.35766e-06, No Iterations 8
smoothSolver:  Solving for Uy, Initial residual = 0.000958624, Final residual = 5.74539e-06, No Iterations 8
GAMG:  Solving for p, Initial residual = 0.00107016, Final residual = 6.4424e-06, No Iterations 5
time step continuity errors : sum local = 1.78878e-06, global = -1.52411e-16, cumulative = -2.19791e-15
smoothSolver:  Solving for nuTilda, Initial residual = 0.000989925, Final residual = 4.53992e-06, No Iterations 8
ExecutionTime = 9.27 s  ClockTime = 9 s

Time = 99

smoothSolver:  Solving for Ux, Initial residual = 0.00190972, Final residual = 8.28095e-06, No Iterations 8
smoothSolver:  Solving for Uy, Initial residual = 0.000948863, Final residual = 5.6779e-06, No Iterations 8
GAMG:  Solving for p, Initial residual = 0.00105538, Final residual = 6.64382e-06, No Iterations 5
time step continuity errors : sum local = 1.84572e-06, global = -1.03414e-16, cumulative = -2.30133e-15
smoothSolver:  Solving for nuTilda, Initial residual = 0.000971716, Final residual = 4.45129e-06, No Iterations 8
ExecutionTime = 9.37 s  ClockTime = 9 s

Time = 100

smoothSolver:  Solving for Ux, Initial residual = 0.00189515, Final residual = 8.20579e-06, No Iterations 8
smoothSolver:  Solving for Uy, Initial residual = 0.000938837, Final residual = 5.60897e-06, No Iterations 8
GAMG:  Solving for p, Initial residual = 0.0010427, Final residual = 6.76466e-06, No Iterations 5
time step continuity errors : sum local = 1.8797e-06, global = 1.43117e-16, cumulative = -2.15821e-15
smoothSolver:  Solving for nuTilda, Initial residual = 0.000953935, Final residual = 4.36445e-06, No Iterations 8
ExecutionTime = 9.46 s  ClockTime = 9 s

forces wings output:
    sum of forces:
        pressure : (2.37858 16.9244 -1.31189e-18)
        viscous  : (0.293675 -0.0410857 5.03249e-20)
        porous   : (0 0 0)
    sum of moments:
        pressure : (-0.846222 0.118929 0.587622)
        viscous  : (0.00205429 0.0146838 -5.38552e-05)
        porous   : (0 0 0)

Time = 101

smoothSolver:  Solving for Ux, Initial residual = 0.00188074, Final residual = 8.13072e-06, No Iterations 8
smoothSolver:  Solving for Uy, Initial residual = 0.00092899, Final residual = 5.54067e-06, No Iterations 8
GAMG:  Solving for p, Initial residual = 0.001034, Final residual = 6.6706e-06, No Iterations 5
time step continuity errors : sum local = 1.85385e-06, global = 4.88462e-17, cumulative = -2.10937e-15
smoothSolver:  Solving for nuTilda, Initial residual = 0.000936571, Final residual = 4.27924e-06, No Iterations 8
ExecutionTime = 9.56 s  ClockTime = 9 s

Time = 102

smoothSolver:  Solving for Ux, Initial residual = 0.0018663, Final residual = 8.05542e-06, No Iterations 8
smoothSolver:  Solving for Uy, Initial residual = 0.000919475, Final residual = 5.47377e-06, No Iterations 8
GAMG:  Solving for p, Initial residual = 0.00102586, Final residual = 6.55789e-06, No Iterations 5
time step continuity errors : sum local = 1.82286e-06, global = -2.89474e-17, cumulative = -2.13831e-15
smoothSolver:  Solving for nuTilda, Initial residual = 0.000919627, Final residual = 4.19564e-06, No Iterations 8
ExecutionTime = 9.65 s  ClockTime = 9 s

Time = 103

smoothSolver:  Solving for Ux, Initial residual = 0.0018519, Final residual = 7.98067e-06, No Iterations 8
smoothSolver:  Solving for Uy, Initial residual = 0.00091009, Final residual = 5.40744e-06, No Iterations 8
GAMG:  Solving for p, Initial residual = 0.00101901, Final residual = 6.40258e-06, No Iterations 5
time step continuity errors : sum local = 1.77989e-06, global = -1.28469e-16, cumulative = -2.26678e-15
smoothSolver:  Solving for nuTilda, Initial residual = 0.000902975, Final residual = 4.11386e-06, No Iterations 8
ExecutionTime = 9.74 s  ClockTime = 9 s

Time = 104

smoothSolver:  Solving for Ux, Initial residual = 0.00183764, Final residual = 7.90688e-06, No Iterations 8
smoothSolver:  Solving for Uy, Initial residual = 0.000900611, Final residual = 5.34073e-06, No Iterations 8
GAMG:  Solving for p, Initial residual = 0.00101211, Final residual = 9.35143e-06, No Iterations 5
time step continuity errors : sum local = 2.60921e-06, global = 1.00825e-16, cumulative = -2.16596e-15
smoothSolver:  Solving for nuTilda, Initial residual = 0.000886698, Final residual = 4.03393e-06, No Iterations 8
ExecutionTime = 9.83 s  ClockTime = 9 s

Time = 105

smoothSolver:  Solving for Ux, Initial residual = 0.00182329, Final residual = 7.83312e-06, No Iterations 8
smoothSolver:  Solving for Uy, Initial residual = 0.000891158, Final residual = 5.27404e-06, No Iterations 8
GAMG:  Solving for p, Initial residual = 0.00100505, Final residual = 9.84846e-06, No Iterations 5
time step continuity errors : sum local = 2.74902e-06, global = -3.05454e-17, cumulative = -2.1965e-15
smoothSolver:  Solving for nuTilda, Initial residual = 0.000870789, Final residual = 3.95566e-06, No Iterations 8
ExecutionTime = 9.92 s  ClockTime = 9 s

forces wings output:
    sum of forces:
        pressure : (2.43718 17.3414 -1.3218e-18)
        viscous  : (0.286399 -0.0400834 5.10614e-20)
        porous   : (0 0 0)
    sum of moments:
        pressure : (-0.86707 0.121859 0.602444)
        viscous  : (0.00200417 0.0143199 -4.91382e-05)
        porous   : (0 0 0)

Time = 106

smoothSolver:  Solving for Ux, Initial residual = 0.00180934, Final residual = 7.76139e-06, No Iterations 8
smoothSolver:  Solving for Uy, Initial residual = 0.000881339, Final residual = 5.20601e-06, No Iterations 8
GAMG:  Solving for p, Initial residual = 0.000998922, Final residual = 5.99595e-06, No Iterations 6
time step continuity errors : sum local = 1.66572e-06, global = 1.37819e-16, cumulative = -2.05868e-15
smoothSolver:  Solving for nuTilda, Initial residual = 0.000855305, Final residual = 3.87865e-06, No Iterations 8
ExecutionTime = 10.02 s  ClockTime = 10 s

Time = 107

smoothSolver:  Solving for Ux, Initial residual = 0.00179591, Final residual = 7.6926e-06, No Iterations 8
smoothSolver:  Solving for Uy, Initial residual = 0.000871104, Final residual = 5.13664e-06, No Iterations 8
GAMG:  Solving for p, Initial residual = 0.000991526, Final residual = 9.80332e-06, No Iterations 5
time step continuity errors : sum local = 2.73736e-06, global = 2.15773e-17, cumulative = -2.03711e-15
smoothSolver:  Solving for nuTilda, Initial residual = 0.000840053, Final residual = 3.80352e-06, No Iterations 8
ExecutionTime = 10.11 s  ClockTime = 10 s

Time = 108

smoothSolver:  Solving for Ux, Initial residual = 0.00178229, Final residual = 7.62256e-06, No Iterations 8
smoothSolver:  Solving for Uy, Initial residual = 0.000861201, Final residual = 5.06834e-06, No Iterations 8
GAMG:  Solving for p, Initial residual = 0.000983937, Final residual = 9.77626e-06, No Iterations 5
time step continuity errors : sum local = 2.72898e-06, global = 1.43329e-16, cumulative = -1.89378e-15
smoothSolver:  Solving for nuTilda, Initial residual = 0.000825021, Final residual = 3.73046e-06, No Iterations 8
ExecutionTime = 10.2 s  ClockTime = 10 s

Time = 109

smoothSolver:  Solving for Ux, Initial residual = 0.00176856, Final residual = 7.55207e-06, No Iterations 8
smoothSolver:  Solving for Uy, Initial residual = 0.000851498, Final residual = 5.00105e-06, No Iterations 8
GAMG:  Solving for p, Initial residual = 0.000975104, Final residual = 9.00072e-06, No Iterations 5
time step continuity errors : sum local = 2.51278e-06, global = 4.36742e-17, cumulative = -1.8501e-15
smoothSolver:  Solving for nuTilda, Initial residual = 0.00081031, Final residual = 3.65942e-06, No Iterations 8
ExecutionTime = 10.29 s  ClockTime = 10 s

Time = 110

smoothSolver:  Solving for Ux, Initial residual = 0.001755, Final residual = 7.4833e-06, No Iterations 8
smoothSolver:  Solving for Uy, Initial residual = 0.000841662, Final residual = 4.93376e-06, No Iterations 8
GAMG:  Solving for p, Initial residual = 0.000966205, Final residual = 8.68864e-06, No Iterations 5
time step continuity errors : sum local = 2.42567e-06, global = 4.11541e-17, cumulative = -1.80895e-15
smoothSolver:  Solving for nuTilda, Initial residual = 0.000795961, Final residual = 3.59032e-06, No Iterations 8
ExecutionTime = 10.39 s  ClockTime = 10 s

forces wings output:
    sum of forces:
        pressure : (2.49541 17.7558 -1.33001e-18)
        viscous  : (0.279563 -0.0391359 5.1707e-20)
        porous   : (0 0 0)
    sum of moments:
        pressure : (-0.887789 0.124771 0.616515)
        viscous  : (0.0019568 0.0139782 -4.62476e-05)
        porous   : (0 0 0)

Time = 111

smoothSolver:  Solving for Ux, Initial residual = 0.00174153, Final residual = 7.4148e-06, No Iterations 8
smoothSolver:  Solving for Uy, Initial residual = 0.000831859, Final residual = 4.86677e-06, No Iterations 8
GAMG:  Solving for p, Initial residual = 0.000958247, Final residual = 6.79329e-06, No Iterations 5
time step continuity errors : sum local = 1.89559e-06, global = 1.04958e-16, cumulative = -1.70399e-15
smoothSolver:  Solving for nuTilda, Initial residual = 0.000781977, Final residual = 3.523e-06, No Iterations 8
ExecutionTime = 10.48 s  ClockTime = 10 s

Time = 112

smoothSolver:  Solving for Ux, Initial residual = 0.00172819, Final residual = 7.34638e-06, No Iterations 8
smoothSolver:  Solving for Uy, Initial residual = 0.00082202, Final residual = 4.79971e-06, No Iterations 8
GAMG:  Solving for p, Initial residual = 0.000949582, Final residual = 8.51446e-06, No Iterations 5
time step continuity errors : sum local = 2.37848e-06, global = 8.69697e-17, cumulative = -1.61702e-15
smoothSolver:  Solving for nuTilda, Initial residual = 0.000768274, Final residual = 3.4571e-06, No Iterations 8
ExecutionTime = 10.58 s  ClockTime = 10 s

Time = 113

smoothSolver:  Solving for Ux, Initial residual = 0.00171493, Final residual = 7.27898e-06, No Iterations 8
smoothSolver:  Solving for Uy, Initial residual = 0.000812131, Final residual = 4.73264e-06, No Iterations 8
GAMG:  Solving for p, Initial residual = 0.000941321, Final residual = 6.0226e-06, No Iterations 5
time step continuity errors : sum local = 1.67861e-06, global = -2.1569e-16, cumulative = -1.83271e-15
smoothSolver:  Solving for nuTilda, Initial residual = 0.00075485, Final residual = 3.39265e-06, No Iterations 8
ExecutionTime = 10.67 s  ClockTime = 10 s

Time = 114

smoothSolver:  Solving for Ux, Initial residual = 0.00170204, Final residual = 7.21323e-06, No Iterations 8
smoothSolver:  Solving for Uy, Initial residual = 0.000801991, Final residual = 4.66516e-06, No Iterations 8
GAMG:  Solving for p, Initial residual = 0.000933086, Final residual = 5.71671e-06, No Iterations 5
time step continuity errors : sum local = 1.59018e-06, global = 3.83761e-17, cumulative = -1.79433e-15
smoothSolver:  Solving for nuTilda, Initial residual = 0.000741725, Final residual = 3.3296e-06, No Iterations 8
ExecutionTime = 10.76 s  ClockTime = 10 s

Time = 115

smoothSolver:  Solving for Ux, Initial residual = 0.00168917, Final residual = 7.14765e-06, No Iterations 8
smoothSolver:  Solving for Uy, Initial residual = 0.000791893, Final residual = 4.59803e-06, No Iterations 8
GAMG:  Solving for p, Initial residual = 0.000925294, Final residual = 5.72901e-06, No Iterations 5
time step continuity errors : sum local = 1.59484e-06, global = 1.64191e-17, cumulative = -1.77792e-15
smoothSolver:  Solving for nuTilda, Initial residual = 0.000728919, Final residual = 3.26787e-06, No Iterations 8
ExecutionTime = 10.85 s  ClockTime = 10 s

forces wings output:
    sum of forces:
        pressure : (2.55026 18.146 -1.33486e-18)
        viscous  : (0.273224 -0.0382582 5.21875e-20)
        porous   : (0 0 0)
    sum of moments:
        pressure : (-0.907301 0.127513 0.627449)
        viscous  : (0.00191291 0.0136612 -4.34421e-05)
        porous   : (0 0 0)

Time = 116

smoothSolver:  Solving for Ux, Initial residual = 0.00167624, Final residual = 7.08133e-06, No Iterations 8
smoothSolver:  Solving for Uy, Initial residual = 0.000781992, Final residual = 4.53207e-06, No Iterations 8
GAMG:  Solving for p, Initial residual = 0.000916593, Final residual = 5.79457e-06, No Iterations 5
time step continuity errors : sum local = 1.61476e-06, global = -3.82989e-17, cumulative = -1.81621e-15
smoothSolver:  Solving for nuTilda, Initial residual = 0.000716422, Final residual = 3.20738e-06, No Iterations 8
ExecutionTime = 10.95 s  ClockTime = 10 s

Time = 117

smoothSolver:  Solving for Ux, Initial residual = 0.00166342, Final residual = 7.01513e-06, No Iterations 8
smoothSolver:  Solving for Uy, Initial residual = 0.000772142, Final residual = 4.46663e-06, No Iterations 8
GAMG:  Solving for p, Initial residual = 0.000909053, Final residual = 5.8642e-06, No Iterations 5
time step continuity errors : sum local = 1.63647e-06, global = 1.96021e-16, cumulative = -1.62019e-15
smoothSolver:  Solving for nuTilda, Initial residual = 0.000704217, Final residual = 3.14811e-06, No Iterations 8
ExecutionTime = 11.04 s  ClockTime = 11 s

Time = 118

smoothSolver:  Solving for Ux, Initial residual = 0.00165078, Final residual = 6.94963e-06, No Iterations 8
[...]
    sum of forces:
        pressure : (2.65302 18.8772 -8.59174e-19)
        viscous  : (0.0925525 -0.0128628 1.06221e-19)
        porous   : (0 0 0)
    sum of moments:
        pressure : (-0.94386 0.132651 0.833105)
        viscous  : (0.000643141 0.00462762 -5.80734e-05)
        porous   : (0 0 0)

Time = 4971

smoothSolver:  Solving for Ux, Initial residual = 4.64227e-07, Final residual = 8.59001e-09, No Iterations 6
smoothSolver:  Solving for Uy, Initial residual = 1.22101e-06, Final residual = 6.05407e-09, No Iterations 8
GAMG:  Solving for p, Initial residual = 1.53467e-06, Final residual = 2.70483e-07, No Iterations 1
time step continuity errors : sum local = 7.68064e-08, global = -3.32856e-16, cumulative = 3.81686e-14
smoothSolver:  Solving for nuTilda, Initial residual = 1.14697e-07, Final residual = 8.00735e-09, No Iterations 4
ExecutionTime = 408.88 s  ClockTime = 409 s

Time = 4972

smoothSolver:  Solving for Ux, Initial residual = 4.63917e-07, Final residual = 8.58642e-09, No Iterations 6
smoothSolver:  Solving for Uy, Initial residual = 1.21719e-06, Final residual = 6.03259e-09, No Iterations 8
GAMG:  Solving for p, Initial residual = 1.53315e-06, Final residual = 2.73247e-07, No Iterations 1
time step continuity errors : sum local = 7.75937e-08, global = 6.3384e-17, cumulative = 3.8232e-14
smoothSolver:  Solving for nuTilda, Initial residual = 1.14354e-07, Final residual = 8.00594e-09, No Iterations 4
ExecutionTime = 408.95 s  ClockTime = 409 s

Time = 4973

smoothSolver:  Solving for Ux, Initial residual = 4.63606e-07, Final residual = 8.57856e-09, No Iterations 6
smoothSolver:  Solving for Uy, Initial residual = 1.21564e-06, Final residual = 6.02435e-09, No Iterations 8
GAMG:  Solving for p, Initial residual = 1.53174e-06, Final residual = 2.76887e-07, No Iterations 1
time step continuity errors : sum local = 7.86389e-08, global = 2.89241e-16, cumulative = 3.85212e-14
smoothSolver:  Solving for nuTilda, Initial residual = 1.14635e-07, Final residual = 8.0037e-09, No Iterations 4
ExecutionTime = 409.01 s  ClockTime = 409 s

Time = 4974

smoothSolver:  Solving for Ux, Initial residual = 4.6342e-07, Final residual = 8.57753e-09, No Iterations 6
smoothSolver:  Solving for Uy, Initial residual = 1.21203e-06, Final residual = 6.0068e-09, No Iterations 8
GAMG:  Solving for p, Initial residual = 1.53298e-06, Final residual = 2.78634e-07, No Iterations 1
time step continuity errors : sum local = 7.91639e-08, global = 1.31893e-16, cumulative = 3.86531e-14
smoothSolver:  Solving for nuTilda, Initial residual = 1.14286e-07, Final residual = 8.00177e-09, No Iterations 4
ExecutionTime = 409.08 s  ClockTime = 409 s

Time = 4975

smoothSolver:  Solving for Ux, Initial residual = 4.63222e-07, Final residual = 8.57241e-09, No Iterations 6
smoothSolver:  Solving for Uy, Initial residual = 1.21045e-06, Final residual = 6.00002e-09, No Iterations 8
GAMG:  Solving for p, Initial residual = 1.53171e-06, Final residual = 2.78655e-07, No Iterations 1
time step continuity errors : sum local = 7.91918e-08, global = -7.22406e-17, cumulative = 3.85809e-14
smoothSolver:  Solving for nuTilda, Initial residual = 1.14562e-07, Final residual = 7.99921e-09, No Iterations 4
ExecutionTime = 409.16 s  ClockTime = 409 s

forces wings output:
    sum of forces:
        pressure : (2.65298 18.8769 -8.59171e-19)
        viscous  : (0.0925543 -0.0128626 1.06221e-19)
        porous   : (0 0 0)
    sum of moments:
        pressure : (-0.943845 0.132649 0.833055)
        viscous  : (0.000643129 0.00462772 -5.81879e-05)
        porous   : (0 0 0)

Time = 4976

smoothSolver:  Solving for Ux, Initial residual = 4.63108e-07, Final residual = 8.57372e-09, No Iterations 6
smoothSolver:  Solving for Uy, Initial residual = 1.20656e-06, Final residual = 5.98157e-09, No Iterations 8
GAMG:  Solving for p, Initial residual = 1.53155e-06, Final residual = 2.75427e-07, No Iterations 1
time step continuity errors : sum local = 7.83033e-08, global = -1.34982e-16, cumulative = 3.84459e-14
smoothSolver:  Solving for nuTilda, Initial residual = 1.14212e-07, Final residual = 7.9973e-09, No Iterations 4
ExecutionTime = 409.23 s  ClockTime = 409 s

Time = 4977

smoothSolver:  Solving for Ux, Initial residual = 4.62895e-07, Final residual = 8.56899e-09, No Iterations 6
smoothSolver:  Solving for Uy, Initial residual = 1.20471e-06, Final residual = 5.97188e-09, No Iterations 8
GAMG:  Solving for p, Initial residual = 1.52749e-06, Final residual = 2.7194e-07, No Iterations 1
time step continuity errors : sum local = 7.73291e-08, global = 2.03503e-16, cumulative = 3.86494e-14
smoothSolver:  Solving for nuTilda, Initial residual = 1.14492e-07, Final residual = 7.99508e-09, No Iterations 4
ExecutionTime = 409.31 s  ClockTime = 409 s

Time = 4978

smoothSolver:  Solving for Ux, Initial residual = 4.62691e-07, Final residual = 8.56889e-09, No Iterations 6
smoothSolver:  Solving for Uy, Initial residual = 1.20059e-06, Final residual = 5.95011e-09, No Iterations 8
GAMG:  Solving for p, Initial residual = 1.5241e-06, Final residual = 2.67776e-07, No Iterations 1
time step continuity errors : sum local = 7.61651e-08, global = 1.62955e-16, cumulative = 3.88123e-14
smoothSolver:  Solving for nuTilda, Initial residual = 1.14147e-07, Final residual = 7.9937e-09, No Iterations 4
ExecutionTime = 409.37 s  ClockTime = 409 s

Time = 4979

smoothSolver:  Solving for Ux, Initial residual = 4.62365e-07, Final residual = 8.56175e-09, No Iterations 6
smoothSolver:  Solving for Uy, Initial residual = 1.19882e-06, Final residual = 5.93845e-09, No Iterations 8
GAMG:  Solving for p, Initial residual = 1.51824e-06, Final residual = 2.66376e-07, No Iterations 1
time step continuity errors : sum local = 7.57748e-08, global = 2.81897e-16, cumulative = 3.90942e-14
smoothSolver:  Solving for nuTilda, Initial residual = 1.14431e-07, Final residual = 7.99186e-09, No Iterations 4
ExecutionTime = 409.44 s  ClockTime = 409 s

Time = 4980

smoothSolver:  Solving for Ux, Initial residual = 4.62077e-07, Final residual = 8.55926e-09, No Iterations 6
smoothSolver:  Solving for Uy, Initial residual = 1.19508e-06, Final residual = 5.91749e-09, No Iterations 8
GAMG:  Solving for p, Initial residual = 1.51531e-06, Final residual = 2.66481e-07, No Iterations 1
time step continuity errors : sum local = 7.58167e-08, global = 1.55071e-18, cumulative = 3.90958e-14
smoothSolver:  Solving for nuTilda, Initial residual = 1.14087e-07, Final residual = 7.99051e-09, No Iterations 4
ExecutionTime = 409.51 s  ClockTime = 410 s

forces wings output:
    sum of forces:
        pressure : (2.65293 18.8766 -8.59169e-19)
        viscous  : (0.0925558 -0.0128633 1.0622e-19)
        porous   : (0 0 0)
    sum of moments:
        pressure : (-0.94383 0.132647 0.833002)
        viscous  : (0.000643165 0.00462779 -5.80722e-05)
        porous   : (0 0 0)

Time = 4981

smoothSolver:  Solving for Ux, Initial residual = 4.61746e-07, Final residual = 8.55147e-09, No Iterations 6
smoothSolver:  Solving for Uy, Initial residual = 1.19367e-06, Final residual = 5.9078e-09, No Iterations 8
GAMG:  Solving for p, Initial residual = 1.51211e-06, Final residual = 2.69735e-07, No Iterations 1
time step continuity errors : sum local = 7.66496e-08, global = 1.55966e-16, cumulative = 3.92517e-14
smoothSolver:  Solving for nuTilda, Initial residual = 1.14372e-07, Final residual = 7.98848e-09, No Iterations 4
ExecutionTime = 409.59 s  ClockTime = 410 s

Time = 4982

smoothSolver:  Solving for Ux, Initial residual = 4.61538e-07, Final residual = 8.55099e-09, No Iterations 6
smoothSolver:  Solving for Uy, Initial residual = 1.19037e-06, Final residual = 5.8905e-09, No Iterations 8
GAMG:  Solving for p, Initial residual = 1.51295e-06, Final residual = 2.73398e-07, No Iterations 1
time step continuity errors : sum local = 7.76799e-08, global = 1.55593e-16, cumulative = 3.94073e-14
smoothSolver:  Solving for nuTilda, Initial residual = 1.14023e-07, Final residual = 7.98666e-09, No Iterations 4
ExecutionTime = 409.66 s  ClockTime = 410 s

Time = 4983

smoothSolver:  Solving for Ux, Initial residual = 4.61338e-07, Final residual = 8.54586e-09, No Iterations 6
smoothSolver:  Solving for Uy, Initial residual = 1.18914e-06, Final residual = 5.88385e-09, No Iterations 8
GAMG:  Solving for p, Initial residual = 1.51304e-06, Final residual = 2.75478e-07, No Iterations 1
time step continuity errors : sum local = 7.82452e-08, global = -1.09943e-16, cumulative = 3.92974e-14
smoothSolver:  Solving for nuTilda, Initial residual = 1.14301e-07, Final residual = 7.98423e-09, No Iterations 4
ExecutionTime = 409.73 s  ClockTime = 410 s

Time = 4984

smoothSolver:  Solving for Ux, Initial residual = 4.61232e-07, Final residual = 8.54705e-09, No Iterations 6
smoothSolver:  Solving for Uy, Initial residual = 1.18574e-06, Final residual = 5.86809e-09, No Iterations 8
GAMG:  Solving for p, Initial residual = 1.5136e-06, Final residual = 2.73951e-07, No Iterations 1
time step continuity errors : sum local = 7.78202e-08, global = -2.98415e-17, cumulative = 3.92676e-14
smoothSolver:  Solving for nuTilda, Initial residual = 1.13953e-07, Final residual = 7.98228e-09, No Iterations 4
ExecutionTime = 409.8 s  ClockTime = 410 s

Time = 4985

smoothSolver:  Solving for Ux, Initial residual = 4.61058e-07, Final residual = 8.54287e-09, No Iterations 6
smoothSolver:  Solving for Uy, Initial residual = 1.18433e-06, Final residual = 5.8599e-09, No Iterations 8
GAMG:  Solving for p, Initial residual = 1.51061e-06, Final residual = 2.70709e-07, No Iterations 1
time step continuity errors : sum local = 7.69152e-08, global = -2.06957e-17, cumulative = 3.92469e-14
smoothSolver:  Solving for nuTilda, Initial residual = 1.14235e-07, Final residual = 7.97993e-09, No Iterations 4
ExecutionTime = 409.87 s  ClockTime = 410 s

forces wings output:
    sum of forces:
        pressure : (2.65289 18.8763 -8.59176e-19)
        viscous  : (0.0925577 -0.0128631 1.06221e-19)
        porous   : (0 0 0)
    sum of moments:
        pressure : (-0.943815 0.132645 0.83295)
        viscous  : (0.000643153 0.00462789 -5.81868e-05)
        porous   : (0 0 0)

Time = 4986

smoothSolver:  Solving for Ux, Initial residual = 4.60902e-07, Final residual = 8.54327e-09, No Iterations 6
smoothSolver:  Solving for Uy, Initial residual = 1.18033e-06, Final residual = 5.84035e-09, No Iterations 8
GAMG:  Solving for p, Initial residual = 1.5081e-06, Final residual = 2.66092e-07, No Iterations 1
time step continuity errors : sum local = 7.56347e-08, global = 6.86588e-17, cumulative = 3.93155e-14
smoothSolver:  Solving for nuTilda, Initial residual = 1.13891e-07, Final residual = 7.97831e-09, No Iterations 4
ExecutionTime = 409.94 s  ClockTime = 410 s

Time = 4987

smoothSolver:  Solving for Ux, Initial residual = 4.60623e-07, Final residual = 8.53682e-09, No Iterations 6
smoothSolver:  Solving for Uy, Initial residual = 1.17829e-06, Final residual = 5.82763e-09, No Iterations 8
GAMG:  Solving for p, Initial residual = 1.50247e-06, Final residual = 2.63557e-07, No Iterations 1
time step continuity errors : sum local = 7.49368e-08, global = -1.40194e-16, cumulative = 3.91753e-14
smoothSolver:  Solving for nuTilda, Initial residual = 1.14179e-07, Final residual = 7.97633e-09, No Iterations 4
ExecutionTime = 410.02 s  ClockTime = 410 s

Time = 4988

smoothSolver:  Solving for Ux, Initial residual = 4.60359e-07, Final residual = 8.53476e-09, No Iterations 6
smoothSolver:  Solving for Uy, Initial residual = 1.17402e-06, Final residual = 5.80569e-09, No Iterations 8
GAMG:  Solving for p, Initial residual = 1.49934e-06, Final residual = 2.62732e-07, No Iterations 1
time step continuity errors : sum local = 7.47282e-08, global = -5.76837e-17, cumulative = 3.91176e-14
smoothSolver:  Solving for nuTilda, Initial residual = 1.1384e-07, Final residual = 7.97489e-09, No Iterations 4
ExecutionTime = 410.09 s  ClockTime = 410 s

Time = 4989

smoothSolver:  Solving for Ux, Initial residual = 4.60029e-07, Final residual = 8.52709e-09, No Iterations 6
smoothSolver:  Solving for Uy, Initial residual = 1.17209e-06, Final residual = 5.79322e-09, No Iterations 8
GAMG:  Solving for p, Initial residual = 1.49526e-06, Final residual = 2.64875e-07, No Iterations 1
time step continuity errors : sum local = 7.53508e-08, global = -9.02541e-17, cumulative = 3.90274e-14
smoothSolver:  Solving for nuTilda, Initial residual = 1.14126e-07, Final residual = 7.97278e-09, No Iterations 4
ExecutionTime = 410.16 s  ClockTime = 410 s

Time = 4990

smoothSolver:  Solving for Ux, Initial residual = 4.59791e-07, Final residual = 8.52541e-09, No Iterations 6
smoothSolver:  Solving for Uy, Initial residual = 1.1683e-06, Final residual = 5.77434e-09, No Iterations 8
GAMG:  Solving for p, Initial residual = 1.49511e-06, Final residual = 2.67766e-07, No Iterations 1
time step continuity errors : sum local = 7.61893e-08, global = 2.19729e-16, cumulative = 3.92471e-14
smoothSolver:  Solving for nuTilda, Initial residual = 1.13782e-07, Final residual = 7.97101e-09, No Iterations 4
ExecutionTime = 410.23 s  ClockTime = 410 s

forces wings output:
    sum of forces:
        pressure : (2.65285 18.876 -8.59174e-19)
        viscous  : (0.0925592 -0.0128638 1.0622e-19)
        porous   : (0 0 0)
    sum of moments:
        pressure : (-0.943801 0.132643 0.832898)
        viscous  : (0.000643188 0.00462796 -5.80711e-05)
        porous   : (0 0 0)

Time = 4991

smoothSolver:  Solving for Ux, Initial residual = 4.59553e-07, Final residual = 8.51964e-09, No Iterations 6
smoothSolver:  Solving for Uy, Initial residual = 1.16688e-06, Final residual = 5.76577e-09, No Iterations 8
GAMG:  Solving for p, Initial residual = 1.49398e-06, Final residual = 2.70562e-07, No Iterations 1
time step continuity errors : sum local = 7.69913e-08, global = -2.52718e-16, cumulative = 3.89944e-14
smoothSolver:  Solving for nuTilda, Initial residual = 1.14062e-07, Final residual = 7.96847e-09, No Iterations 4
ExecutionTime = 410.31 s  ClockTime = 410 s

Time = 4992

smoothSolver:  Solving for Ux, Initial residual = 4.59427e-07, Final residual = 8.5205e-09, No Iterations 6
smoothSolver:  Solving for Uy, Initial residual = 1.16354e-06, Final residual = 5.75054e-09, No Iterations 8
GAMG:  Solving for p, Initial residual = 1.49516e-06, Final residual = 2.71403e-07, No Iterations 1
time step continuity errors : sum local = 7.71195e-08, global = 1.65274e-18, cumulative = 3.89961e-14
smoothSolver:  Solving for nuTilda, Initial residual = 1.13716e-07, Final residual = 7.96642e-09, No Iterations 4
ExecutionTime = 410.38 s  ClockTime = 410 s

Time = 4993

smoothSolver:  Solving for Ux, Initial residual = 4.59281e-07, Final residual = 8.51771e-09, No Iterations 6
smoothSolver:  Solving for Uy, Initial residual = 1.16247e-06, Final residual = 5.74338e-09, No Iterations 8
GAMG:  Solving for p, Initial residual = 1.494e-06, Final residual = 2.70801e-07, No Iterations 1
time step continuity errors : sum local = 7.69509e-08, global = 4.22329e-17, cumulative = 3.90383e-14
smoothSolver:  Solving for nuTilda, Initial residual = 1.13994e-07, Final residual = 7.96379e-09, No Iterations 4
ExecutionTime = 410.45 s  ClockTime = 410 s

Time = 4994

smoothSolver:  Solving for Ux, Initial residual = 4.59191e-07, Final residual = 8.51962e-09, No Iterations 6
smoothSolver:  Solving for Uy, Initial residual = 1.15909e-06, Final residual = 5.72779e-09, No Iterations 8
GAMG:  Solving for p, Initial residual = 1.49367e-06, Final residual = 2.66618e-07, No Iterations 1
time step continuity errors : sum local = 7.57447e-08, global = 4.76362e-17, cumulative = 3.90859e-14
smoothSolver:  Solving for nuTilda, Initial residual = 1.13648e-07, Final residual = 7.962e-09, No Iterations 4
ExecutionTime = 410.52 s  ClockTime = 411 s

Time = 4995

smoothSolver:  Solving for Ux, Initial residual = 4.58985e-07, Final residual = 8.5146e-09, No Iterations 6
smoothSolver:  Solving for Uy, Initial residual = 1.15778e-06, Final residual = 5.71771e-09, No Iterations 8
GAMG:  Solving for p, Initial residual = 1.48872e-06, Final residual = 2.62467e-07, No Iterations 1
time step continuity errors : sum local = 7.45657e-08, global = 1.63684e-16, cumulative = 3.92496e-14
smoothSolver:  Solving for nuTilda, Initial residual = 1.13933e-07, Final residual = 7.95985e-09, No Iterations 4
ExecutionTime = 410.59 s  ClockTime = 411 s

forces wings output:
    sum of forces:
        pressure : (2.65281 18.8757 -8.59182e-19)
        viscous  : (0.092561 -0.0128635 1.06221e-19)
        porous   : (0 0 0)
    sum of moments:
        pressure : (-0.943786 0.132641 0.832844)
        viscous  : (0.000643176 0.00462805 -5.81858e-05)
        porous   : (0 0 0)

Time = 4996

smoothSolver:  Solving for Ux, Initial residual = 4.58783e-07, Final residual = 8.5137e-09, No Iterations 6
smoothSolver:  Solving for Uy, Initial residual = 1.15395e-06, Final residual = 5.69845e-09, No Iterations 8
GAMG:  Solving for p, Initial residual = 1.48482e-06, Final residual = 2.58557e-07, No Iterations 1
time step continuity errors : sum local = 7.3481e-08, global = -4.10569e-17, cumulative = 3.92085e-14
smoothSolver:  Solving for nuTilda, Initial residual = 1.13593e-07, Final residual = 7.95842e-09, No Iterations 4
ExecutionTime = 410.67 s  ClockTime = 411 s

Time = 4997

smoothSolver:  Solving for Ux, Initial residual = 4.58476e-07, Final residual = 8.5061e-09, No Iterations 6
smoothSolver:  Solving for Uy, Initial residual = 1.15215e-06, Final residual = 5.6851e-09, No Iterations 8
GAMG:  Solving for p, Initial residual = 1.47914e-06, Final residual = 2.58178e-07, No Iterations 1
time step continuity errors : sum local = 7.33977e-08, global = -1.04368e-18, cumulative = 3.92075e-14
smoothSolver:  Solving for nuTilda, Initial residual = 1.13881e-07, Final residual = 7.95646e-09, No Iterations 4
ExecutionTime = 410.74 s  ClockTime = 411 s

Time = 4998

smoothSolver:  Solving for Ux, Initial residual = 4.5822e-07, Final residual = 8.50358e-09, No Iterations 6
smoothSolver:  Solving for Uy, Initial residual = 1.14808e-06, Final residual = 5.66517e-09, No Iterations 8
GAMG:  Solving for p, Initial residual = 1.47711e-06, Final residual = 2.60199e-07, No Iterations 1
time step continuity errors : sum local = 7.40037e-08, global = 1.02802e-16, cumulative = 3.93103e-14
smoothSolver:  Solving for nuTilda, Initial residual = 1.1354e-07, Final residual = 7.9549e-09, No Iterations 4
ExecutionTime = 410.81 s  ClockTime = 411 s

Time = 4999

smoothSolver:  Solving for Ux, Initial residual = 4.57945e-07, Final residual = 8.49672e-09, No Iterations 6
smoothSolver:  Solving for Uy, Initial residual = 1.14622e-06, Final residual = 5.65334e-09, No Iterations 8
GAMG:  Solving for p, Initial residual = 1.47521e-06, Final residual = 2.64268e-07, No Iterations 1
time step continuity errors : sum local = 7.51814e-08, global = -1.56852e-16, cumulative = 3.91535e-14
smoothSolver:  Solving for nuTilda, Initial residual = 1.13823e-07, Final residual = 7.95259e-09, No Iterations 4
ExecutionTime = 410.88 s  ClockTime = 411 s

Time = 5000

smoothSolver:  Solving for Ux, Initial residual = 4.57782e-07, Final residual = 8.49657e-09, No Iterations 6
smoothSolver:  Solving for Uy, Initial residual = 1.14241e-06, Final residual = 5.63663e-09, No Iterations 8
GAMG:  Solving for p, Initial residual = 1.47688e-06, Final residual = 2.67691e-07, No Iterations 1
time step continuity errors : sum local = 7.61783e-08, global = 5.33248e-17, cumulative = 3.92068e-14
smoothSolver:  Solving for nuTilda, Initial residual = 1.13475e-07, Final residual = 7.95058e-09, No Iterations 4
ExecutionTime = 411.09 s  ClockTime = 411 s

forces wings output:
    sum of forces:
        pressure : (2.65277 18.8755 -8.59181e-19)
        viscous  : (0.0925624 -0.0128642 1.0622e-19)
        porous   : (0 0 0)
    sum of moments:
        pressure : (-0.943773 0.132639 0.832793)
        viscous  : (0.000643212 0.00462812 -5.807e-05)
        porous   : (0 0 0)

End

