/*---------------------------------------------------------------------------*\
| =========                 |                                                 |
| \\      /  F ield         | OpenFOAM: The Open Source CFD Toolbox           |
|  \\    /   O peration     | Version:  2.3.0                                 |
|   \\  /    A nd           | Web:      www.OpenFOAM.org                      |
|    \\/     M anipulation  |                                                 |
\*---------------------------------------------------------------------------*/
Build  : 2.3.0-f5222ca19ce6
Exec   : simpleFoam -case Runs/flatplate_1/case
Date   : Jan 08 2015
Time   : 18:57:19
Host   : "lordvon-XPS-8300"
PID    : 7223
Case   : Runs/flatplate_1/case
nProcs : 1
sigFpe : Enabling floating point exception trapping (FOAM_SIGFPE).
fileModificationChecking : Monitoring run-time modified files using timeStampMaster
allowSystemOperations : Disallowing user-supplied system call operations

// * * * * * * * * * * * * * * * * * * * * * * * * * * * * * * * * * * * * * //
Create time

Create mesh for time = 0

Reading field p

Reading field U

Reading/calculating face flux field phi

Selecting incompressible transport model Newtonian
Selecting RAS turbulence model SpalartAllmaras
SpalartAllmarasCoeffs
{
    sigmaNut        0.66666;
    kappa           0.41;
    Cb1             0.1355;
    Cb2             0.622;
    Cw2             0.3;
    Cw3             2;
    Cv1             7.1;
    Cv2             5;
}

    Employing Ashford correction
No finite volume options present


SIMPLE: convergence criteria
    field p	 tolerance 1e-12
    field U	 tolerance 1e-12
    field nuTilda	 tolerance 1e-12


Starting time loop

forces wings:
    Not including porosity effects

Time = 1

smoothSolver:  Solving for Ux, Initial residual = 1, Final residual = 0.0194903, No Iterations 4
smoothSolver:  Solving for Uy, Initial residual = 1, Final residual = 0.0829332, No Iterations 2
GAMG:  Solving for p, Initial residual = 1, Final residual = 0.0542316, No Iterations 2
time step continuity errors : sum local = 0.00478575, global = 1.27617e-16, cumulative = 1.27617e-16
smoothSolver:  Solving for nuTilda, Initial residual = 1, Final residual = 0.018035, No Iterations 2
ExecutionTime = 0.06 s  ClockTime = 0 s

Time = 2

smoothSolver:  Solving for Ux, Initial residual = 0.281003, Final residual = 0.00831309, No Iterations 4
smoothSolver:  Solving for Uy, Initial residual = 0.483295, Final residual = 0.0320258, No Iterations 4
GAMG:  Solving for p, Initial residual = 0.673877, Final residual = 0.03002, No Iterations 2
time step continuity errors : sum local = 0.00466791, global = -4.0837e-16, cumulative = -2.80753e-16
smoothSolver:  Solving for nuTilda, Initial residual = 0.177916, Final residual = 0.0113103, No Iterations 2
ExecutionTime = 0.08 s  ClockTime = 0 s

Time = 3

smoothSolver:  Solving for Ux, Initial residual = 0.158819, Final residual = 0.00611224, No Iterations 4
smoothSolver:  Solving for Uy, Initial residual = 0.178332, Final residual = 0.0110751, No Iterations 4
GAMG:  Solving for p, Initial residual = 0.470019, Final residual = 0.0216035, No Iterations 2
time step continuity errors : sum local = 0.00435885, global = 1.37954e-16, cumulative = -1.428e-16
smoothSolver:  Solving for nuTilda, Initial residual = 0.0798838, Final residual = 0.00216718, No Iterations 4
ExecutionTime = 0.09 s  ClockTime = 0 s

Time = 4

smoothSolver:  Solving for Ux, Initial residual = 0.108059, Final residual = 0.00448724, No Iterations 4
smoothSolver:  Solving for Uy, Initial residual = 0.0718901, Final residual = 0.00396891, No Iterations 4
GAMG:  Solving for p, Initial residual = 0.332232, Final residual = 0.0144603, No Iterations 2
time step continuity errors : sum local = 0.00327584, global = -1.27535e-16, cumulative = -2.70334e-16
smoothSolver:  Solving for nuTilda, Initial residual = 0.0518402, Final residual = 0.00204522, No Iterations 4
ExecutionTime = 0.1 s  ClockTime = 0 s

Time = 5

smoothSolver:  Solving for Ux, Initial residual = 0.0769177, Final residual = 0.00308704, No Iterations 4
smoothSolver:  Solving for Uy, Initial residual = 0.0701654, Final residual = 0.00375391, No Iterations 4
GAMG:  Solving for p, Initial residual = 0.25337, Final residual = 0.0126662, No Iterations 2
time step continuity errors : sum local = 0.00309244, global = 1.94198e-16, cumulative = -7.61367e-17
smoothSolver:  Solving for nuTilda, Initial residual = 0.0393046, Final residual = 0.00174578, No Iterations 4
ExecutionTime = 0.12 s  ClockTime = 0 s

forces wings output:
    sum of forces:
        pressure : (-0.513617 -29.4251 -1.68681e-20)
        viscous  : (0.476831 -0.0124025 2.89324e-21)
        porous   : (0 0 0)
    sum of moments:
        pressure : (1.47125 -0.0256808 -8.28827)
        viscous  : (0.000620123 0.0238416 -0.00102015)
        porous   : (0 0 0)

Time = 6

smoothSolver:  Solving for Ux, Initial residual = 0.0612502, Final residual = 0.00239014, No Iterations 4
smoothSolver:  Solving for Uy, Initial residual = 0.0975342, Final residual = 0.00558079, No Iterations 4
GAMG:  Solving for p, Initial residual = 0.224007, Final residual = 0.0167731, No Iterations 2
time step continuity errors : sum local = 0.00441998, global = 2.33362e-16, cumulative = 1.57226e-16
smoothSolver:  Solving for nuTilda, Initial residual = 0.0312231, Final residual = 0.00142888, No Iterations 4
ExecutionTime = 0.14 s  ClockTime = 0 s

Time = 7

smoothSolver:  Solving for Ux, Initial residual = 0.0504045, Final residual = 0.00199612, No Iterations 4
smoothSolver:  Solving for Uy, Initial residual = 0.107662, Final residual = 0.00654185, No Iterations 4
GAMG:  Solving for p, Initial residual = 0.184508, Final residual = 0.0134198, No Iterations 2
time step continuity errors : sum local = 0.00370504, global = 4.96849e-17, cumulative = 2.0691e-16
smoothSolver:  Solving for nuTilda, Initial residual = 0.0254175, Final residual = 0.00116413, No Iterations 4
bounding nuTilda, min: -0.000661235 max: 0.329467 average: 0.103116
ExecutionTime = 0.15 s  ClockTime = 0 s

Time = 8

smoothSolver:  Solving for Ux, Initial residual = 0.0410961, Final residual = 0.001604, No Iterations 4
smoothSolver:  Solving for Uy, Initial residual = 0.112599, Final residual = 0.00613874, No Iterations 4
GAMG:  Solving for p, Initial residual = 0.15, Final residual = 0.00784647, No Iterations 2
time step continuity errors : sum local = 0.00221632, global = -1.81265e-17, cumulative = 1.88784e-16
smoothSolver:  Solving for nuTilda, Initial residual = 0.0210976, Final residual = 0.000960068, No Iterations 4
bounding nuTilda, min: -0.00138738 max: 0.346015 average: 0.100953
ExecutionTime = 0.16 s  ClockTime = 0 s

Time = 9

smoothSolver:  Solving for Ux, Initial residual = 0.0339047, Final residual = 0.00126691, No Iterations 4
smoothSolver:  Solving for Uy, Initial residual = 0.0765912, Final residual = 0.00399917, No Iterations 4
GAMG:  Solving for p, Initial residual = 0.146068, Final residual = 0.0109232, No Iterations 2
time step continuity errors : sum local = 0.00315758, global = 1.60638e-17, cumulative = 2.04848e-16
smoothSolver:  Solving for nuTilda, Initial residual = 0.0177265, Final residual = 0.000799371, No Iterations 4
bounding nuTilda, min: -0.00425207 max: 0.358722 average: 0.0990487
ExecutionTime = 0.18 s  ClockTime = 0 s

Time = 10

smoothSolver:  Solving for Ux, Initial residual = 0.0297391, Final residual = 0.00113022, No Iterations 4
smoothSolver:  Solving for Uy, Initial residual = 0.0475809, Final residual = 0.0027389, No Iterations 4
GAMG:  Solving for p, Initial residual = 0.131043, Final residual = 0.0117823, No Iterations 2
time step continuity errors : sum local = 0.00345476, global = 8.47351e-17, cumulative = 2.89583e-16
smoothSolver:  Solving for nuTilda, Initial residual = 0.0150033, Final residual = 0.000667099, No Iterations 4
bounding nuTilda, min: -0.00730514 max: 0.368184 average: 0.0973492
ExecutionTime = 0.2 s  ClockTime = 0 s

forces wings output:
    sum of forces:
        pressure : (0.0948611 5.43459 -6.74554e-21)
        viscous  : (0.423048 -0.0190363 -1.27448e-21)
        porous   : (0 0 0)
    sum of moments:
        pressure : (-0.27173 0.00474306 1.50682)
        viscous  : (0.000951815 0.0211524 -0.00305112)
        porous   : (0 0 0)

Time = 11

smoothSolver:  Solving for Ux, Initial residual = 0.0266704, Final residual = 0.00101047, No Iterations 4
smoothSolver:  Solving for Uy, Initial residual = 0.0477838, Final residual = 0.0027203, No Iterations 4
GAMG:  Solving for p, Initial residual = 0.112016, Final residual = 0.00835786, No Iterations 2
time step continuity errors : sum local = 0.00246645, global = 1.42759e-16, cumulative = 4.32342e-16
smoothSolver:  Solving for nuTilda, Initial residual = 0.0128211, Final residual = 0.000562137, No Iterations 4
bounding nuTilda, min: -0.00765999 max: 0.375081 average: 0.0958178
ExecutionTime = 0.21 s  ClockTime = 0 s

Time = 12

smoothSolver:  Solving for Ux, Initial residual = 0.0234445, Final residual = 0.000851548, No Iterations 4
smoothSolver:  Solving for Uy, Initial residual = 0.0605399, Final residual = 0.003096, No Iterations 4
GAMG:  Solving for p, Initial residual = 0.106265, Final residual = 0.00895501, No Iterations 2
time step continuity errors : sum local = 0.00266383, global = 3.22309e-16, cumulative = 7.5465e-16
smoothSolver:  Solving for nuTilda, Initial residual = 0.0110622, Final residual = 0.000474709, No Iterations 4
bounding nuTilda, min: -0.0077164 max: 0.38 average: 0.0944218
ExecutionTime = 0.23 s  ClockTime = 0 s

Time = 13

smoothSolver:  Solving for Ux, Initial residual = 0.0192435, Final residual = 0.000636786, No Iterations 4
smoothSolver:  Solving for Uy, Initial residual = 0.0745381, Final residual = 0.00368088, No Iterations 4
GAMG:  Solving for p, Initial residual = 0.0952521, Final residual = 0.00757813, No Iterations 2
time step continuity errors : sum local = 0.00226381, global = 8.56723e-17, cumulative = 8.40323e-16
smoothSolver:  Solving for nuTilda, Initial residual = 0.0095701, Final residual = 0.000403499, No Iterations 4
bounding nuTilda, min: -0.00761874 max: 0.383412 average: 0.0931395
ExecutionTime = 0.24 s  ClockTime = 0 s

Time = 14

smoothSolver:  Solving for Ux, Initial residual = 0.0161971, Final residual = 0.000544099, No Iterations 4
smoothSolver:  Solving for Uy, Initial residual = 0.0859744, Final residual = 0.0041216, No Iterations 4
GAMG:  Solving for p, Initial residual = 0.0792289, Final residual = 0.0048432, No Iterations 2
time step continuity errors : sum local = 0.00144375, global = -8.84955e-17, cumulative = 7.51827e-16
smoothSolver:  Solving for nuTilda, Initial residual = 0.00834287, Final residual = 0.000346798, No Iterations 4
bounding nuTilda, min: -0.00742885 max: 0.385759 average: 0.0919521
ExecutionTime = 0.25 s  ClockTime = 0 s

Time = 15

smoothSolver:  Solving for Ux, Initial residual = 0.0158086, Final residual = 0.000630932, No Iterations 4
smoothSolver:  Solving for Uy, Initial residual = 0.0772062, Final residual = 0.00364831, No Iterations 4
GAMG:  Solving for p, Initial residual = 0.0747947, Final residual = 0.00650824, No Iterations 2
time step continuity errors : sum local = 0.00193892, global = 4.12874e-17, cumulative = 7.93115e-16
smoothSolver:  Solving for nuTilda, Initial residual = 0.00725602, Final residual = 0.00030197, No Iterations 4
bounding nuTilda, min: -0.00720366 max: 0.390255 average: 0.0908464
ExecutionTime = 0.27 s  ClockTime = 0 s

forces wings output:
    sum of forces:
        pressure : (-0.0229243 -1.31334 -2.83773e-21)
        viscous  : (0.36056 -0.0082591 8.57494e-22)
        porous   : (0 0 0)
    sum of moments:
        pressure : (0.0656668 -0.00114622 -0.836138)
        viscous  : (0.000412955 0.018028 -0.000536106)
        porous   : (0 0 0)

Time = 16

smoothSolver:  Solving for Ux, Initial residual = 0.0144213, Final residual = 0.000610292, No Iterations 4
smoothSolver:  Solving for Uy, Initial residual = 0.0548077, Final residual = 0.00274452, No Iterations 4
GAMG:  Solving for p, Initial residual = 0.0685056, Final residual = 0.00666049, No Iterations 2
time step continuity errors : sum local = 0.00198301, global = -2.3816e-16, cumulative = 5.54955e-16
smoothSolver:  Solving for nuTilda, Initial residual = 0.00629371, Final residual = 0.000266271, No Iterations 4
bounding nuTilda, min: -0.00697307 max: 0.393507 average: 0.0898095
ExecutionTime = 0.28 s  ClockTime = 0 s

Time = 17

smoothSolver:  Solving for Ux, Initial residual = 0.0115467, Final residual = 0.000439356, No Iterations 4
smoothSolver:  Solving for Uy, Initial residual = 0.0386467, Final residual = 0.00201219, No Iterations 4
GAMG:  Solving for p, Initial residual = 0.0583577, Final residual = 0.00533515, No Iterations 2
time step continuity errors : sum local = 0.00158441, global = -5.49148e-18, cumulative = 5.49463e-16
smoothSolver:  Solving for nuTilda, Initial residual = 0.00542722, Final residual = 0.000238431, No Iterations 4
bounding nuTilda, min: -0.00674861 max: 0.395651 average: 0.0888349
ExecutionTime = 0.3 s  ClockTime = 0 s

Time = 18

smoothSolver:  Solving for Ux, Initial residual = 0.00931251, Final residual = 0.000334878, No Iterations 4
smoothSolver:  Solving for Uy, Initial residual = 0.041324, Final residual = 0.00210286, No Iterations 4
GAMG:  Solving for p, Initial residual = 0.0539209, Final residual = 0.00496677, No Iterations 2
time step continuity errors : sum local = 0.00147604, global = 7.00627e-17, cumulative = 6.19526e-16
smoothSolver:  Solving for nuTilda, Initial residual = 0.00473607, Final residual = 0.000218005, No Iterations 4
bounding nuTilda, min: -0.00653844 max: 0.396904 average: 0.0879141
ExecutionTime = 0.31 s  ClockTime = 0 s

Time = 19

smoothSolver:  Solving for Ux, Initial residual = 0.00845923, Final residual = 0.000355798, No Iterations 4
smoothSolver:  Solving for Uy, Initial residual = 0.0475888, Final residual = 0.00236922, No Iterations 4
GAMG:  Solving for p, Initial residual = 0.0482108, Final residual = 0.0038174, No Iterations 2
time step continuity errors : sum local = 0.00113663, global = 2.2032e-17, cumulative = 6.41558e-16
smoothSolver:  Solving for nuTilda, Initial residual = 0.00415985, Final residual = 0.000202237, No Iterations 4
bounding nuTilda, min: -0.00634403 max: 0.397548 average: 0.0870409
ExecutionTime = 0.32 s  ClockTime = 0 s

Time = 20

smoothSolver:  Solving for Ux, Initial residual = 0.00775201, Final residual = 0.00036954, No Iterations 4
smoothSolver:  Solving for Uy, Initial residual = 0.0455331, Final residual = 0.00216585, No Iterations 4
GAMG:  Solving for p, Initial residual = 0.0427704, Final residual = 0.00292614, No Iterations 2
time step continuity errors : sum local = 0.000874319, global = -2.19397e-16, cumulative = 4.22161e-16
smoothSolver:  Solving for nuTilda, Initial residual = 0.0036856, Final residual = 0.000189304, No Iterations 4
bounding nuTilda, min: -0.00616538 max: 0.397862 average: 0.0862118
ExecutionTime = 0.34 s  ClockTime = 0 s

forces wings output:
    sum of forces:
        pressure : (0.0507543 2.90771 -1.97806e-20)
        viscous  : (0.313804 -0.00455754 3.75571e-22)
        porous   : (0 0 0)
    sum of moments:
        pressure : (-0.145386 0.00253771 0.309089)
        viscous  : (0.000227877 0.0156902 0.000178495)
        porous   : (0 0 0)

Time = 21

smoothSolver:  Solving for Ux, Initial residual = 0.00642597, Final residual = 0.000312931, No Iterations 4
smoothSolver:  Solving for Uy, Initial residual = 0.0356251, Final residual = 0.00176546, No Iterations 4
GAMG:  Solving for p, Initial residual = 0.0397466, Final residual = 0.00358835, No Iterations 2
time step continuity errors : sum local = 0.00106975, global = -2.90108e-16, cumulative = 1.32053e-16
smoothSolver:  Solving for nuTilda, Initial residual = 0.00329956, Final residual = 0.000177847, No Iterations 4
bounding nuTilda, min: -0.00600373 max: 0.398076 average: 0.0854235
ExecutionTime = 0.35 s  ClockTime = 0 s

Time = 22

smoothSolver:  Solving for Ux, Initial residual = 0.00521953, Final residual = 0.000245645, No Iterations 4
smoothSolver:  Solving for Uy, Initial residual = 0.0233574, Final residual = 0.00131011, No Iterations 4
GAMG:  Solving for p, Initial residual = 0.0350138, Final residual = 0.00322116, No Iterations 2
time step continuity errors : sum local = 0.00095963, global = 1.65315e-16, cumulative = 2.97369e-16
smoothSolver:  Solving for nuTilda, Initial residual = 0.00296315, Final residual = 0.000166998, No Iterations 4
bounding nuTilda, min: -0.005855 max: 0.398289 average: 0.0846717
ExecutionTime = 0.37 s  ClockTime = 0 s

Time = 23

smoothSolver:  Solving for Ux, Initial residual = 0.00448108, Final residual = 0.00020377, No Iterations 4
smoothSolver:  Solving for Uy, Initial residual = 0.0244759, Final residual = 0.00126311, No Iterations 4
GAMG:  Solving for p, Initial residual = 0.0295897, Final residual = 0.0021849, No Iterations 2
time step continuity errors : sum local = 0.000651112, global = 1.32533e-16, cumulative = 4.29902e-16
smoothSolver:  Solving for nuTilda, Initial residual = 0.00269446, Final residual = 0.000157019, No Iterations 4
bounding nuTilda, min: -0.00571653 max: 0.3985 average: 0.0839537
ExecutionTime = 0.38 s  ClockTime = 0 s

Time = 24

smoothSolver:  Solving for Ux, Initial residual = 0.00407712, Final residual = 0.000189119, No Iterations 4
smoothSolver:  Solving for Uy, Initial residual = 0.0274418, Final residual = 0.00127803, No Iterations 4
GAMG:  Solving for p, Initial residual = 0.025957, Final residual = 0.00182981, No Iterations 2
time step continuity errors : sum local = 0.000543578, global = -8.54314e-17, cumulative = 3.4447e-16
smoothSolver:  Solving for nuTilda, Initial residual = 0.00249591, Final residual = 0.000148407, No Iterations 4
bounding nuTilda, min: -0.00558717 max: 0.398653 average: 0.0832675
ExecutionTime = 0.39 s  ClockTime = 0 s

Time = 25

smoothSolver:  Solving for Ux, Initial residual = 0.00358363, Final residual = 0.000167318, No Iterations 4
smoothSolver:  Solving for Uy, Initial residual = 0.0257389, Final residual = 0.00118195, No Iterations 4
GAMG:  Solving for p, Initial residual = 0.0233642, Final residual = 0.00184084, No Iterations 2
time step continuity errors : sum local = 0.000544867, global = 2.13113e-16, cumulative = 5.57584e-16
smoothSolver:  Solving for nuTilda, Initial residual = 0.00232925, Final residual = 0.000140571, No Iterations 4
bounding nuTilda, min: -0.00546526 max: 0.398689 average: 0.0826111
ExecutionTime = 0.41 s  ClockTime = 0 s

forces wings output:
    sum of forces:
        pressure : (0.0195705 1.12119 -5.64672e-21)
        viscous  : (0.289712 -0.00441073 -1.35691e-22)
        porous   : (0 0 0)
    sum of moments:
        pressure : (-0.0560596 0.000978526 0.214529)
        viscous  : (0.000220536 0.0144856 0.000201668)
        porous   : (0 0 0)

Time = 26

smoothSolver:  Solving for Ux, Initial residual = 0.00305042, Final residual = 0.000135739, No Iterations 4
smoothSolver:  Solving for Uy, Initial residual = 0.0202688, Final residual = 0.000950118, No Iterations 4
GAMG:  Solving for p, Initial residual = 0.0207445, Final residual = 0.0018322, No Iterations 2
time step continuity errors : sum local = 0.000542266, global = -2.42972e-16, cumulative = 3.14612e-16
smoothSolver:  Solving for nuTilda, Initial residual = 0.00218713, Final residual = 0.000133123, No Iterations 4
bounding nuTilda, min: -0.00535137 max: 0.398583 average: 0.081982
ExecutionTime = 0.42 s  ClockTime = 0 s

Time = 27

smoothSolver:  Solving for Ux, Initial residual = 0.00294225, Final residual = 0.000128163, No Iterations 4
smoothSolver:  Solving for Uy, Initial residual = 0.0147352, Final residual = 0.00075038, No Iterations 4
GAMG:  Solving for p, Initial residual = 0.0193303, Final residual = 0.001626, No Iterations 2
time step continuity errors : sum local = 0.000482898, global = -4.52613e-17, cumulative = 2.69351e-16
smoothSolver:  Solving for nuTilda, Initial residual = 0.0020619, Final residual = 0.000125946, No Iterations 4
bounding nuTilda, min: -0.00524647 max: 0.398356 average: 0.081378
ExecutionTime = 0.43 s  ClockTime = 0 s

Time = 28

smoothSolver:  Solving for Ux, Initial residual = 0.00314822, Final residual = 0.000144589, No Iterations 4
smoothSolver:  Solving for Uy, Initial residual = 0.0149405, Final residual = 0.000765189, No Iterations 4
GAMG:  Solving for p, Initial residual = 0.0171985, Final residual = 0.00118857, No Iterations 2
time step continuity errors : sum local = 0.000356079, global = -3.11852e-17, cumulative = 2.38165e-16
smoothSolver:  Solving for nuTilda, Initial residual = 0.00196082, Final residual = 0.000119441, No Iterations 4
bounding nuTilda, min: -0.00514919 max: 0.39807 average: 0.0807977
ExecutionTime = 0.45 s  ClockTime = 0 s

Time = 29

smoothSolver:  Solving for Ux, Initial residual = 0.00308911, Final residual = 0.000139424, No Iterations 4
smoothSolver:  Solving for Uy, Initial residual = 0.0163802, Final residual = 0.000827582, No Iterations 4
GAMG:  Solving for p, Initial residual = 0.0143443, Final residual = 0.000924213, No Iterations 2
time step continuity errors : sum local = 0.000279663, global = -3.51093e-17, cumulative = 2.03056e-16
smoothSolver:  Solving for nuTilda, Initial residual = 0.00186555, Final residual = 0.000113103, No Iterations 4
bounding nuTilda, min: -0.00505974 max: 0.397801 average: 0.08024
ExecutionTime = 0.46 s  ClockTime = 0 s

Time = 30

smoothSolver:  Solving for Ux, Initial residual = 0.00262913, Final residual = 0.000114885, No Iterations 4
smoothSolver:  Solving for Uy, Initial residual = 0.0155788, Final residual = 0.000776723, No Iterations 4
GAMG:  Solving for p, Initial residual = 0.0129621, Final residual = 0.00099273, No Iterations 2
time step continuity errors : sum local = 0.000299651, global = 2.70866e-17, cumulative = 2.30143e-16
smoothSolver:  Solving for nuTilda, Initial residual = 0.00177139, Final residual = 0.000106926, No Iterations 4
bounding nuTilda, min: -0.00497748 max: 0.397607 average: 0.0797035
ExecutionTime = 0.48 s  ClockTime = 0 s

forces wings output:
    sum of forces:
        pressure : (0.0170313 0.97572 -7.31137e-21)
        viscous  : (0.275684 -0.004696 3.48619e-22)
        porous   : (0 0 0)
    sum of moments:
        pressure : (-0.048786 0.000851565 -0.182475)
        viscous  : (0.0002348 0.0137842 3.05453e-06)
        porous   : (0 0 0)

Time = 31

smoothSolver:  Solving for Ux, Initial residual = 0.00210851, Final residual = 8.80951e-05, No Iterations 4
smoothSolver:  Solving for Uy, Initial residual = 0.0124096, Final residual = 0.000635516, No Iterations 4
GAMG:  Solving for p, Initial residual = 0.0121195, Final residual = 0.000976152, No Iterations 2
time step continuity errors : sum local = 0.000294185, global = 5.64118e-18, cumulative = 2.35784e-16
smoothSolver:  Solving for nuTilda, Initial residual = 0.00167476, Final residual = 0.000101166, No Iterations 4
bounding nuTilda, min: -0.0049004 max: 0.397519 average: 0.079186
ExecutionTime = 0.49 s  ClockTime = 0 s

Time = 32

smoothSolver:  Solving for Ux, Initial residual = 0.00187113, Final residual = 8.16805e-05, No Iterations 4
smoothSolver:  Solving for Uy, Initial residual = 0.00996669, Final residual = 0.000522924, No Iterations 4
GAMG:  Solving for p, Initial residual = 0.0107563, Final residual = 0.000872772, No Iterations 2
time step continuity errors : sum local = 0.000262943, global = -1.99699e-16, cumulative = 3.60846e-17
smoothSolver:  Solving for nuTilda, Initial residual = 0.0015817, Final residual = 9.58915e-05, No Iterations 4
bounding nuTilda, min: -0.0048276 max: 0.397531 average: 0.0786866
ExecutionTime = 0.51 s  ClockTime = 0 s

Time = 33

smoothSolver:  Solving for Ux, Initial residual = 0.00187095, Final residual = 8.50086e-05, No Iterations 4
smoothSolver:  Solving for Uy, Initial residual = 0.00996983, Final residual = 0.000499137, No Iterations 4
GAMG:  Solving for p, Initial residual = 0.0093522, Final residual = 0.000771679, No Iterations 2
time step continuity errors : sum local = 0.000226848, global = -9.66687e-17, cumulative = -6.0584e-17
smoothSolver:  Solving for nuTilda, Initial residual = 0.00150058, Final residual = 9.1258e-05, No Iterations 4
bounding nuTilda, min: -0.00475848 max: 0.397616 average: 0.0782043
ExecutionTime = 0.52 s  ClockTime = 0 s

Time = 34

smoothSolver:  Solving for Ux, Initial residual = 0.00186675, Final residual = 8.39467e-05, No Iterations 4
smoothSolver:  Solving for Uy, Initial residual = 0.0101436, Final residual = 0.000499088, No Iterations 4
GAMG:  Solving for p, Initial residual = 0.00829764, Final residual = 0.000602191, No Iterations 2
time step continuity errors : sum local = 0.000178548, global = -8.43695e-17, cumulative = -1.44953e-16
smoothSolver:  Solving for nuTilda, Initial residual = 0.0014274, Final residual = 8.68853e-05, No Iterations 4
bounding nuTilda, min: -0.00469327 max: 0.397738 average: 0.0777384
ExecutionTime = 0.53 s  ClockTime = 0 s

Time = 35

smoothSolver:  Solving for Ux, Initial residual = 0.00177123, Final residual = 7.82689e-05, No Iterations 4
smoothSolver:  Solving for Uy, Initial residual = 0.00920154, Final residual = 0.000456798, No Iterations 4
GAMG:  Solving for p, Initial residual = 0.00733743, Final residual = 0.000473606, No Iterations 2
time step continuity errors : sum local = 0.000139909, global = 1.20168e-16, cumulative = -2.47853e-17
smoothSolver:  Solving for nuTilda, Initial residual = 0.00135781, Final residual = 8.2687e-05, No Iterations 4
bounding nuTilda, min: -0.00463239 max: 0.397863 average: 0.0772895
ExecutionTime = 0.56 s  ClockTime = 0 s

forces wings output:
    sum of forces:
        pressure : (0.0290697 1.6654 -1.35743e-20)
        viscous  : (0.266693 -0.00460313 4.03043e-22)
        porous   : (0 0 0)
    sum of moments:
        pressure : (-0.08327 0.00145348 0.144855)
        viscous  : (0.000230156 0.0133347 -2.66128e-05)
        porous   : (0 0 0)

Time = 36

smoothSolver:  Solving for Ux, Initial residual = 0.00157879, Final residual = 6.81679e-05, No Iterations 4
smoothSolver:  Solving for Uy, Initial residual = 0.00791259, Final residual = 0.000402045, No Iterations 4
GAMG:  Solving for p, Initial residual = 0.0065745, Final residual = 0.000458291, No Iterations 2
time step continuity errors : sum local = 0.000135761, global = -2.65303e-16, cumulative = -2.90088e-16
smoothSolver:  Solving for nuTilda, Initial residual = 0.00129073, Final residual = 7.87194e-05, No Iterations 4
bounding nuTilda, min: -0.00457533 max: 0.397967 average: 0.0768548
ExecutionTime = 0.57 s  ClockTime = 0 s

Time = 37

smoothSolver:  Solving for Ux, Initial residual = 0.00134838, Final residual = 5.77611e-05, No Iterations 4
smoothSolver:  Solving for Uy, Initial residual = 0.00662041, Final residual = 0.000343549, No Iterations 4
GAMG:  Solving for p, Initial residual = 0.00600907, Final residual = 0.000475094, No Iterations 2
time step continuity errors : sum local = 0.000141775, global = -6.53088e-17, cumulative = -3.55397e-16
smoothSolver:  Solving for nuTilda, Initial residual = 0.00122714, Final residual = 7.49981e-05, No Iterations 4
bounding nuTilda, min: -0.00452158 max: 0.398037 average: 0.0764344
ExecutionTime = 0.58 s  ClockTime = 0 s

Time = 38

smoothSolver:  Solving for Ux, Initial residual = 0.00119063, Final residual = 5.08912e-05, No Iterations 4
smoothSolver:  Solving for Uy, Initial residual = 0.00539995, Final residual = 0.000289376, No Iterations 4
GAMG:  Solving for p, Initial residual = 0.00557223, Final residual = 0.000447458, No Iterations 2
time step continuity errors : sum local = 0.000134849, global = -7.73133e-17, cumulative = -4.3271e-16
smoothSolver:  Solving for nuTilda, Initial residual = 0.0011672, Final residual = 7.1472e-05, No Iterations 4
bounding nuTilda, min: -0.00447077 max: 0.398068 average: 0.0760269
ExecutionTime = 0.6 s  ClockTime = 0 s

Time = 39

smoothSolver:  Solving for Ux, Initial residual = 0.00116773, Final residual = 5.03468e-05, No Iterations 4
smoothSolver:  Solving for Uy, Initial residual = 0.00516321, Final residual = 0.000277966, No Iterations 4
GAMG:  Solving for p, Initial residual = 0.00481728, Final residual = 0.000355631, No Iterations 2
time step continuity errors : sum local = 0.000104753, global = -1.07796e-16, cumulative = -5.40507e-16
smoothSolver:  Solving for nuTilda, Initial residual = 0.0011113, Final residual = 6.81305e-05, No Iterations 4
bounding nuTilda, min: -0.00442235 max: 0.398062 average: 0.0756323
ExecutionTime = 0.61 s  ClockTime = 1 s

Time = 40

smoothSolver:  Solving for Ux, Initial residual = 0.00116755, Final residual = 5.14856e-05, No Iterations 4
smoothSolver:  Solving for Uy, Initial residual = 0.00515102, Final residual = 0.000271226, No Iterations 4
GAMG:  Solving for p, Initial residual = 0.00406966, Final residual = 0.000267387, No Iterations 2
time step continuity errors : sum local = 8.05727e-05, global = -3.32963e-17, cumulative = -5.73803e-16
smoothSolver:  Solving for nuTilda, Initial residual = 0.00106206, Final residual = 6.49681e-05, No Iterations 4
bounding nuTilda, min: -0.00437654 max: 0.398028 average: 0.0752497
ExecutionTime = 0.63 s  ClockTime = 1 s

forces wings output:
    sum of forces:
        pressure : (0.0226065 1.29512 -5.99826e-21)
        viscous  : (0.260465 -0.00449157 3.88947e-23)
        porous   : (0 0 0)
    sum of moments:
        pressure : (-0.0647562 0.00113032 -0.000406218)
        viscous  : (0.000224578 0.0130232 -2.06195e-05)
        porous   : (0 0 0)

Time = 41

smoothSolver:  Solving for Ux, Initial residual = 0.00113793, Final residual = 5.22662e-05, No Iterations 4
smoothSolver:  Solving for Uy, Initial residual = 0.00522007, Final residual = 0.000270425, No Iterations 4
GAMG:  Solving for p, Initial residual = 0.00358925, Final residual = 0.000227327, No Iterations 2
time step continuity errors : sum local = 6.75059e-05, global = -2.12367e-16, cumulative = -7.8617e-16
smoothSolver:  Solving for nuTilda, Initial residual = 0.00101553, Final residual = 6.1991e-05, No Iterations 4
bounding nuTilda, min: -0.00433304 max: 0.397976 average: 0.0748787
ExecutionTime = 0.64 s  ClockTime = 1 s

Time = 42

smoothSolver:  Solving for Ux, Initial residual = 0.00104562, Final residual = 4.96111e-05, No Iterations 4
smoothSolver:  Solving for Uy, Initial residual = 0.00488622, Final residual = 0.000255574, No Iterations 4
GAMG:  Solving for p, Initial residual = 0.00336875, Final residual = 0.000248346, No Iterations 2
time step continuity errors : sum local = 7.30575e-05, global = 2.36175e-16, cumulative = -5.49996e-16
smoothSolver:  Solving for nuTilda, Initial residual = 0.000970366, Final residual = 5.91241e-05, No Iterations 4
bounding nuTilda, min: -0.00429158 max: 0.397919 average: 0.0745187
ExecutionTime = 0.66 s  ClockTime = 1 s

Time = 43

smoothSolver:  Solving for Ux, Initial residual = 0.000938926, Final residual = 4.54451e-05, No Iterations 4
smoothSolver:  Solving for Uy, Initial residual = 0.00418417, Final residual = 0.000226294, No Iterations 4
GAMG:  Solving for p, Initial residual = 0.00310056, Final residual = 0.000228232, No Iterations 2
time step continuity errors : sum local = 6.77821e-05, global = 1.36512e-16, cumulative = -4.13484e-16
smoothSolver:  Solving for nuTilda, Initial residual = 0.000925065, Final residual = 5.63319e-05, No Iterations 4
bounding nuTilda, min: -0.00425245 max: 0.397868 average: 0.0741694
ExecutionTime = 0.67 s  ClockTime = 1 s

Time = 44

smoothSolver:  Solving for Ux, Initial residual = 0.000841848, Final residual = 4.00729e-05, No Iterations 4
smoothSolver:  Solving for Uy, Initial residual = 0.00353267, Final residual = 0.000199738, No Iterations 4
GAMG:  Solving for p, Initial residual = 0.00277456, Final residual = 0.000201442, No Iterations 2
time step continuity errors : sum local = 5.98528e-05, global = -8.93715e-17, cumulative = -5.02855e-16
smoothSolver:  Solving for nuTilda, Initial residual = 0.000882619, Final residual = 5.3654e-05, No Iterations 4
bounding nuTilda, min: -0.00421535 max: 0.397831 average: 0.0738301
ExecutionTime = 0.68 s  ClockTime = 1 s

Time = 45

smoothSolver:  Solving for Ux, Initial residual = 0.000766296, Final residual = 3.60027e-05, No Iterations 4
smoothSolver:  Solving for Uy, Initial residual = 0.00307581, Final residual = 0.000181028, No Iterations 4
GAMG:  Solving for p, Initial residual = 0.00253523, Final residual = 0.00019283, No Iterations 2
time step continuity errors : sum local = 5.67747e-05, global = 2.33411e-16, cumulative = -2.69444e-16
smoothSolver:  Solving for nuTilda, Initial residual = 0.000841503, Final residual = 5.11482e-05, No Iterations 4
bounding nuTilda, min: -0.00417986 max: 0.397811 average: 0.0735008
ExecutionTime = 0.7 s  ClockTime = 1 s

forces wings output:
    sum of forces:
        pressure : (0.0271261 1.55405 -7.33107e-21)
        viscous  : (0.255963 -0.00440023 3.86271e-23)
        porous   : (0 0 0)
    sum of moments:
        pressure : (-0.0777027 0.00135631 0.0430234)
        viscous  : (0.000220011 0.0127981 -2.77031e-05)
        porous   : (0 0 0)

Time = 46

smoothSolver:  Solving for Ux, Initial residual = 0.000708616, Final residual = 3.30036e-05, No Iterations 4
smoothSolver:  Solving for Uy, Initial residual = 0.00288774, Final residual = 0.000170868, No Iterations 4
GAMG:  Solving for p, Initial residual = 0.0023131, Final residual = 0.000184563, No Iterations 2
time step continuity errors : sum local = 5.4181e-05, global = -1.23302e-16, cumulative = -3.92746e-16
smoothSolver:  Solving for nuTilda, Initial residual = 0.000802261, Final residual = 4.883e-05, No Iterations 4
bounding nuTilda, min: -0.00414593 max: 0.397805 average: 0.073181
ExecutionTime = 0.71 s  ClockTime = 1 s

Time = 47

smoothSolver:  Solving for Ux, Initial residual = 0.000671184, Final residual = 3.14966e-05, No Iterations 4
smoothSolver:  Solving for Uy, Initial residual = 0.00287086, Final residual = 0.000165407, No Iterations 4
GAMG:  Solving for p, Initial residual = 0.00201521, Final residual = 0.000148311, No Iterations 2
time step continuity errors : sum local = 4.41333e-05, global = -1.77362e-16, cumulative = -5.70109e-16
smoothSolver:  Solving for nuTilda, Initial residual = 0.000765848, Final residual = 4.66595e-05, No Iterations 4
bounding nuTilda, min: -0.00411337 max: 0.39781 average: 0.0728715
ExecutionTime = 0.72 s  ClockTime = 1 s

Time = 48

smoothSolver:  Solving for Ux, Initial residual = 0.000637192, Final residual = 2.9964e-05, No Iterations 4
smoothSolver:  Solving for Uy, Initial residual = 0.0027478, Final residual = 0.000157424, No Iterations 4
GAMG:  Solving for p, Initial residual = 0.00182066, Final residual = 0.000129713, No Iterations 2
time step continuity errors : sum local = 3.89134e-05, global = 3.8319e-17, cumulative = -5.3179e-16
smoothSolver:  Solving for nuTilda, Initial residual = 0.000732592, Final residual = 4.457e-05, No Iterations 4
bounding nuTilda, min: -0.00408212 max: 0.39782 average: 0.0725706
ExecutionTime = 0.74 s  ClockTime = 1 s

Time = 49

smoothSolver:  Solving for Ux, Initial residual = 0.000599475, Final residual = 2.84362e-05, No Iterations 4
smoothSolver:  Solving for Uy, Initial residual = 0.00246993, Final residual = 0.000145906, No Iterations 4
GAMG:  Solving for p, Initial residual = 0.00169081, Final residual = 0.000128721, No Iterations 2
time step continuity errors : sum local = 3.85632e-05, global = 7.72081e-17, cumulative = -4.54582e-16
smoothSolver:  Solving for nuTilda, Initial residual = 0.000700995, Final residual = 4.25538e-05, No Iterations 4
bounding nuTilda, min: -0.00405221 max: 0.39783 average: 0.0722779
ExecutionTime = 0.75 s  ClockTime = 1 s

Time = 50

smoothSolver:  Solving for Ux, Initial residual = 0.000568977, Final residual = 2.7542e-05, No Iterations 4
smoothSolver:  Solving for Uy, Initial residual = 0.00221486, Final residual = 0.000134403, No Iterations 4
GAMG:  Solving for p, Initial residual = 0.0015508, Final residual = 0.000128403, No Iterations 2
time step continuity errors : sum local = 3.82814e-05, global = -5.3334e-17, cumulative = -5.07916e-16
smoothSolver:  Solving for nuTilda, Initial residual = 0.000670812, Final residual = 4.06254e-05, No Iterations 4
bounding nuTilda, min: -0.00402362 max: 0.397839 average: 0.071993
ExecutionTime = 0.79 s  ClockTime = 1 s

forces wings output:
    sum of forces:
        pressure : (0.0281879 1.61488 -8.61392e-21)
        viscous  : (0.252805 -0.00432384 1.38526e-22)
        porous   : (0 0 0)
    sum of moments:
        pressure : (-0.0807441 0.00140939 0.0491974)
        viscous  : (0.000216192 0.0126403 -2.39506e-05)
        porous   : (0 0 0)

Time = 51

smoothSolver:  Solving for Ux, Initial residual = 0.000545185, Final residual = 2.68499e-05, No Iterations 4
smoothSolver:  Solving for Uy, Initial residual = 0.00208053, Final residual = 0.000126232, No Iterations 4
GAMG:  Solving for p, Initial residual = 0.00135954, Final residual = 0.000115408, No Iterations 2
time step continuity errors : sum local = 3.43239e-05, global = 8.86044e-17, cumulative = -4.19311e-16
smoothSolver:  Solving for nuTilda, Initial residual = 0.00064155, Final residual = 3.8796e-05, No Iterations 4
bounding nuTilda, min: -0.00399642 max: 0.397847 average: 0.0717159
ExecutionTime = 0.81 s  ClockTime = 1 s

Time = 52

smoothSolver:  Solving for Ux, Initial residual = 0.00052389, Final residual = 2.62363e-05, No Iterations 4
smoothSolver:  Solving for Uy, Initial residual = 0.00196336, Final residual = 0.000118487, No Iterations 4
GAMG:  Solving for p, Initial residual = 0.00126793, Final residual = 0.000105456, No Iterations 2
time step continuity errors : sum local = 3.13727e-05, global = -2.63597e-17, cumulative = -4.45671e-16
smoothSolver:  Solving for nuTilda, Initial residual = 0.000613719, Final residual = 3.70615e-05, No Iterations 4
bounding nuTilda, min: -0.00397043 max: 0.397853 average: 0.0714464
ExecutionTime = 0.82 s  ClockTime = 1 s

Time = 53

smoothSolver:  Solving for Ux, Initial residual = 0.000503405, Final residual = 2.5415e-05, No Iterations 4
smoothSolver:  Solving for Uy, Initial residual = 0.00180197, Final residual = 0.000110746, No Iterations 4
GAMG:  Solving for p, Initial residual = 0.0012473, Final residual = 0.000101148, No Iterations 2
time step continuity errors : sum local = 3.02011e-05, global = 1.89729e-16, cumulative = -2.55942e-16
smoothSolver:  Solving for nuTilda, Initial residual = 0.000587131, Final residual = 3.54182e-05, No Iterations 4
bounding nuTilda, min: -0.00394541 max: 0.397858 average: 0.0711843
ExecutionTime = 0.84 s  ClockTime = 1 s

Time = 54

smoothSolver:  Solving for Ux, Initial residual = 0.000480753, Final residual = 2.44002e-05, No Iterations 4
smoothSolver:  Solving for Uy, Initial residual = 0.00167568, Final residual = 0.000105493, No Iterations 4
GAMG:  Solving for p, Initial residual = 0.00112635, Final residual = 9.61609e-05, No Iterations 2
time step continuity errors : sum local = 2.89574e-05, global = 5.95363e-17, cumulative = -1.96405e-16
smoothSolver:  Solving for nuTilda, Initial residual = 0.000561799, Final residual = 3.38666e-05, No Iterations 4
bounding nuTilda, min: -0.00392124 max: 0.397861 average: 0.0709304
ExecutionTime = 0.85 s  ClockTime = 1 s

Time = 55

smoothSolver:  Solving for Ux, Initial residual = 0.000461282, Final residual = 2.35977e-05, No Iterations 4
smoothSolver:  Solving for Uy, Initial residual = 0.00167124, Final residual = 0.000103351, No Iterations 4
GAMG:  Solving for p, Initial residual = 0.000960631, Final residual = 8.71833e-05, No Iterations 2
time step continuity errors : sum local = 2.65536e-05, global = -1.57733e-16, cumulative = -3.54138e-16
smoothSolver:  Solving for nuTilda, Initial residual = 0.000538019, Final residual = 3.24032e-05, No Iterations 4
bounding nuTilda, min: -0.00389799 max: 0.397861 average: 0.0706827
ExecutionTime = 0.86 s  ClockTime = 1 s

forces wings output:
    sum of forces:
        pressure : (0.0287204 1.64539 -5.89913e-21)
        viscous  : (0.250492 -0.00428089 -7.54275e-23)
        porous   : (0 0 0)
    sum of moments:
        pressure : (-0.0822694 0.00143602 0.0385245)
        viscous  : (0.000214045 0.0125246 -2.79384e-05)
        porous   : (0 0 0)

Time = 56

smoothSolver:  Solving for Ux, Initial residual = 0.000448154, Final residual = 2.30993e-05, No Iterations 4
smoothSolver:  Solving for Uy, Initial residual = 0.0017062, Final residual = 0.00010309, No Iterations 4
GAMG:  Solving for p, Initial residual = 0.000867492, Final residual = 8.02413e-05, No Iterations 2
time step continuity errors : sum local = 2.3758e-05, global = 2.99778e-17, cumulative = -3.2416e-16
smoothSolver:  Solving for nuTilda, Initial residual = 0.000515831, Final residual = 3.10123e-05, No Iterations 4
bounding nuTilda, min: -0.00387558 max: 0.397858 average: 0.0704415
ExecutionTime = 0.88 s  ClockTime = 1 s

Time = 57

smoothSolver:  Solving for Ux, Initial residual = 0.000434809, Final residual = 2.25992e-05, No Iterations 4
smoothSolver:  Solving for Uy, Initial residual = 0.0016736, Final residual = 0.000102145, No Iterations 4
GAMG:  Solving for p, Initial residual = 0.000855454, Final residual = 8.14332e-05, No Iterations 2
time step continuity errors : sum local = 2.43186e-05, global = 8.05707e-17, cumulative = -2.43589e-16
smoothSolver:  Solving for nuTilda, Initial residual = 0.000494947, Final residual = 2.96865e-05, No Iterations 4
bounding nuTilda, min: -0.00385397 max: 0.397854 average: 0.070207
ExecutionTime = 0.89 s  ClockTime = 1 s

Time = 58

smoothSolver:  Solving for Ux, Initial residual = 0.000425335, Final residual = 2.23147e-05, No Iterations 4
smoothSolver:  Solving for Uy, Initial residual = 0.00161703, Final residual = 0.000101001, No Iterations 4
GAMG:  Solving for p, Initial residual = 0.000821996, Final residual = 7.44224e-05, No Iterations 2
time step continuity errors : sum local = 2.20313e-05, global = 5.42621e-17, cumulative = -1.89327e-16
smoothSolver:  Solving for nuTilda, Initial residual = 0.000475107, Final residual = 2.84172e-05, No Iterations 4
bounding nuTilda, min: -0.00383317 max: 0.397849 average: 0.069979
ExecutionTime = 0.91 s  ClockTime = 1 s

Time = 59

smoothSolver:  Solving for Ux, Initial residual = 0.000411798, Final residual = 2.19264e-05, No Iterations 4
smoothSolver:  Solving for Uy, Initial residual = 0.00151705, Final residual = 9.72457e-05, No Iterations 4
GAMG:  Solving for p, Initial residual = 0.000752431, Final residual = 6.76398e-05, No Iterations 2
time step continuity errors : sum local = 1.99099e-05, global = -5.60516e-18, cumulative = -1.94932e-16
smoothSolver:  Solving for nuTilda, Initial residual = 0.000456205, Final residual = 2.72086e-05, No Iterations 4
bounding nuTilda, min: -0.00381312 max: 0.397845 average: 0.0697575
ExecutionTime = 0.92 s  ClockTime = 1 s

Time = 60

smoothSolver:  Solving for Ux, Initial residual = 0.000396201, Final residual = 2.12432e-05, No Iterations 4
smoothSolver:  Solving for Uy, Initial residual = 0.00141759, Final residual = 9.19391e-05, No Iterations 4
GAMG:  Solving for p, Initial residual = 0.000691515, Final residual = 6.62735e-05, No Iterations 2
time step continuity errors : sum local = 1.94923e-05, global = -1.74239e-17, cumulative = -2.12356e-16
smoothSolver:  Solving for nuTilda, Initial residual = 0.000438202, Final residual = 2.60578e-05, No Iterations 4
bounding nuTilda, min: -0.00379381 max: 0.397842 average: 0.0695417
ExecutionTime = 0.93 s  ClockTime = 1 s

forces wings output:
    sum of forces:
        pressure : (0.0300824 1.72342 -7.1707e-21)
        viscous  : (0.248791 -0.00424419 -1.14657e-23)
        porous   : (0 0 0)
    sum of moments:
        pressure : (-0.0861709 0.00150412 0.0450901)
        viscous  : (0.000212209 0.0124396 -2.75073e-05)
        porous   : (0 0 0)

Time = 61

smoothSolver:  Solving for Ux, Initial residual = 0.000380187, Final residual = 2.0379e-05, No Iterations 4
smoothSolver:  Solving for Uy, Initial residual = 0.00133325, Final residual = 8.58935e-05, No Iterations 4
GAMG:  Solving for p, Initial residual = 0.000667211, Final residual = 6.26886e-05, No Iterations 2
time step continuity errors : sum local = 1.85446e-05, global = -5.90274e-17, cumulative = -2.71384e-16
smoothSolver:  Solving for nuTilda, Initial residual = 0.00042082, Final residual = 2.496e-05, No Iterations 4
bounding nuTilda, min: -0.00377519 max: 0.397841 average: 0.0693321
ExecutionTime = 0.95 s  ClockTime = 1 s

Time = 62

smoothSolver:  Solving for Ux, Initial residual = 0.000367732, Final residual = 1.96748e-05, No Iterations 4
smoothSolver:  Solving for Uy, Initial residual = 0.00126707, Final residual = 8.09057e-05, No Iterations 4
GAMG:  Solving for p, Initial residual = 0.000624888, Final residual = 5.64188e-05, No Iterations 2
time step continuity errors : sum local = 1.68773e-05, global = -5.77427e-17, cumulative = -3.29127e-16
smoothSolver:  Solving for nuTilda, Initial residual = 0.000404226, Final residual = 2.39114e-05, No Iterations 4
bounding nuTilda, min: -0.00375711 max: 0.397841 average: 0.0691287
ExecutionTime = 0.96 s  ClockTime = 1 s

Time = 63

smoothSolver:  Solving for Ux, Initial residual = 0.000356898, Final residual = 1.90649e-05, No Iterations 4
smoothSolver:  Solving for Uy, Initial residual = 0.00123611, Final residual = 7.86188e-05, No Iterations 4
GAMG:  Solving for p, Initial residual = 0.000578949, Final residual = 5.47293e-05, No Iterations 2
time step continuity errors : sum local = 1.65738e-05, global = -2.24883e-17, cumulative = -3.51615e-16
smoothSolver:  Solving for nuTilda, Initial residual = 0.000388483, Final residual = 2.29083e-05, No Iterations 4
bounding nuTilda, min: -0.00373953 max: 0.397841 average: 0.0689311
ExecutionTime = 0.98 s  ClockTime = 1 s

Time = 64

smoothSolver:  Solving for Ux, Initial residual = 0.000349456, Final residual = 1.86129e-05, No Iterations 4
smoothSolver:  Solving for Uy, Initial residual = 0.0012023, Final residual = 7.64031e-05, No Iterations 4
GAMG:  Solving for p, Initial residual = 0.000551527, Final residual = 2.52588e-05, No Iterations 3
time step continuity errors : sum local = 7.49714e-06, global = -4.66659e-17, cumulative = -3.98281e-16
smoothSolver:  Solving for nuTilda, Initial residual = 0.000373338, Final residual = 2.19522e-05, No Iterations 4
bounding nuTilda, min: -0.00372259 max: 0.397841 average: 0.0687394
ExecutionTime = 0.99 s  ClockTime = 1 s

Time = 65

smoothSolver:  Solving for Ux, Initial residual = 0.000346535, Final residual = 1.83764e-05, No Iterations 4
smoothSolver:  Solving for Uy, Initial residual = 0.00117073, Final residual = 7.45824e-05, No Iterations 4
GAMG:  Solving for p, Initial residual = 0.000536389, Final residual = 4.93852e-05, No Iterations 2
time step continuity errors : sum local = 1.48199e-05, global = 3.09726e-17, cumulative = -3.67308e-16
smoothSolver:  Solving for nuTilda, Initial residual = 0.000358965, Final residual = 2.10423e-05, No Iterations 4
bounding nuTilda, min: -0.00370595 max: 0.397841 average: 0.0685535
ExecutionTime = 1 s  ClockTime = 1 s

forces wings output:
    sum of forces:
        pressure : (0.0307347 1.76079 -5.66012e-21)
        viscous  : (0.247472 -0.0042165 -1.21761e-22)
        porous   : (0 0 0)
    sum of moments:
        pressure : (-0.0880393 0.00153673 0.0359067)
        viscous  : (0.000210825 0.0123736 -3.01033e-05)
        porous   : (0 0 0)

Time = 66

smoothSolver:  Solving for Ux, Initial residual = 0.000340729, Final residual = 1.80222e-05, No Iterations 4
smoothSolver:  Solving for Uy, Initial residual = 0.00113064, Final residual = 7.25721e-05, No Iterations 4
GAMG:  Solving for p, Initial residual = 0.000522847, Final residual = 4.86566e-05, No Iterations 2
time step continuity errors : sum local = 1.44893e-05, global = 1.2135e-18, cumulative = -3.66095e-16
smoothSolver:  Solving for nuTilda, Initial residual = 0.000345394, Final residual = 2.01785e-05, No Iterations 4
bounding nuTilda, min: -0.00368982 max: 0.39784 average: 0.0683735
ExecutionTime = 1.02 s  ClockTime = 1 s

Time = 67

smoothSolver:  Solving for Ux, Initial residual = 0.000334484, Final residual = 1.76146e-05, No Iterations 4
smoothSolver:  Solving for Uy, Initial residual = 0.00111441, Final residual = 7.13445e-05, No Iterations 4
GAMG:  Solving for p, Initial residual = 0.000502481, Final residual = 4.49725e-05, No Iterations 2
time step continuity errors : sum local = 1.33284e-05, global = 1.58177e-16, cumulative = -2.07918e-16
smoothSolver:  Solving for nuTilda, Initial residual = 0.000332178, Final residual = 1.93496e-05, No Iterations 4
bounding nuTilda, min: -0.00367413 max: 0.39784 average: 0.0681992
ExecutionTime = 1.03 s  ClockTime = 1 s

Time = 68

smoothSolver:  Solving for Ux, Initial residual = 0.00032765, Final residual = 1.71672e-05, No Iterations 4
smoothSolver:  Solving for Uy, Initial residual = 0.00110468, Final residual = 7.03066e-05, No Iterations 4
GAMG:  Solving for p, Initial residual = 0.000491901, Final residual = 3.88276e-05, No Iterations 2
time step continuity errors : sum local = 1.14936e-05, global = -1.59743e-17, cumulative = -2.23892e-16
smoothSolver:  Solving for nuTilda, Initial residual = 0.000319305, Final residual = 1.85494e-05, No Iterations 4
bounding nuTilda, min: -0.00365885 max: 0.397839 average: 0.0680308
ExecutionTime = 1.05 s  ClockTime = 1 s

Time = 69

smoothSolver:  Solving for Ux, Initial residual = 0.000319269, Final residual = 1.66896e-05, No Iterations 4
smoothSolver:  Solving for Uy, Initial residual = 0.00107141, Final residual = 6.79802e-05, No Iterations 4
GAMG:  Solving for p, Initial residual = 0.000481868, Final residual = 3.63281e-05, No Iterations 2
time step continuity errors : sum local = 1.07722e-05, global = 4.08503e-17, cumulative = -1.83042e-16
smoothSolver:  Solving for nuTilda, Initial residual = 0.000306977, Final residual = 1.7786e-05, No Iterations 4
bounding nuTilda, min: -0.00364394 max: 0.397839 average: 0.0678683
ExecutionTime = 1.06 s  ClockTime = 1 s

Time = 70

smoothSolver:  Solving for Ux, Initial residual = 0.000310898, Final residual = 1.61854e-05, No Iterations 4
smoothSolver:  Solving for Uy, Initial residual = 0.00101583, Final residual = 6.44496e-05, No Iterations 4
GAMG:  Solving for p, Initial residual = 0.000472516, Final residual = 3.77448e-05, No Iterations 2
time step continuity errors : sum local = 1.12488e-05, global = -2.71922e-16, cumulative = -4.54964e-16
smoothSolver:  Solving for nuTilda, Initial residual = 0.0002949, Final residual = 1.70589e-05, No Iterations 4
bounding nuTilda, min: -0.00362939 max: 0.397839 average: 0.0677117
ExecutionTime = 1.07 s  ClockTime = 1 s

forces wings output:
    sum of forces:
        pressure : (0.0313824 1.79789 -5.882e-21)
        viscous  : (0.246596 -0.00419376 -1.2393e-22)
        porous   : (0 0 0)
    sum of moments:
        pressure : (-0.0898946 0.00156912 0.0366564)
        viscous  : (0.000209688 0.0123298 -3.11376e-05)
        porous   : (0 0 0)

Time = 71

smoothSolver:  Solving for Ux, Initial residual = 0.000302448, Final residual = 1.56359e-05, No Iterations 4
smoothSolver:  Solving for Uy, Initial residual = 0.000970062, Final residual = 6.08114e-05, No Iterations 4
GAMG:  Solving for p, Initial residual = 0.00046498, Final residual = 3.65592e-05, No Iterations 2
time step continuity errors : sum local = 1.10062e-05, global = 2.57038e-17, cumulative = -4.29261e-16
smoothSolver:  Solving for nuTilda, Initial residual = 0.000283425, Final residual = 1.63658e-05, No Iterations 4
bounding nuTilda, min: -0.00361518 max: 0.397838 average: 0.0675611
ExecutionTime = 1.09 s  ClockTime = 1 s

Time = 72

smoothSolver:  Solving for Ux, Initial residual = 0.000293572, Final residual = 1.50615e-05, No Iterations 4
smoothSolver:  Solving for Uy, Initial residual = 0.000943206, Final residual = 5.80478e-05, No Iterations 4
GAMG:  Solving for p, Initial residual = 0.000461428, Final residual = 3.53835e-05, No Iterations 2
time step continuity errors : sum local = 1.04413e-05, global = 1.42539e-17, cumulative = -4.15007e-16
smoothSolver:  Solving for nuTilda, Initial residual = 0.000272303, Final residual = 1.57047e-05, No Iterations 4
bounding nuTilda, min: -0.00360125 max: 0.397838 average: 0.0674165
ExecutionTime = 1.1 s  ClockTime = 1 s

Time = 73

smoothSolver:  Solving for Ux, Initial residual = 0.000285661, Final residual = 1.45007e-05, No Iterations 4
smoothSolver:  Solving for Uy, Initial residual = 0.000920214, Final residual = 5.58473e-05, No Iterations 4
GAMG:  Solving for p, Initial residual = 0.000469487, Final residual = 3.34516e-05, No Iterations 2
time step continuity errors : sum local = 1.00572e-05, global = -2.1464e-16, cumulative = -6.29647e-16
smoothSolver:  Solving for nuTilda, Initial residual = 0.000261708, Final residual = 1.50792e-05, No Iterations 4
bounding nuTilda, min: -0.00358761 max: 0.397838 average: 0.067278
ExecutionTime = 1.12 s  ClockTime = 1 s

Time = 74

smoothSolver:  Solving for Ux, Initial residual = 0.000279008, Final residual = 1.3986e-05, No Iterations 4
smoothSolver:  Solving for Uy, Initial residual = 0.000903599, Final residual = 5.46299e-05, No Iterations 4
GAMG:  Solving for p, Initial residual = 0.000472633, Final residual = 3.44455e-05, No Iterations 2
time step continuity errors : sum local = 1.03329e-05, global = 3.17924e-16, cumulative = -3.11723e-16
smoothSolver:  Solving for nuTilda, Initial residual = 0.000251787, Final residual = 1.44868e-05, No Iterations 4
bounding nuTilda, min: -0.00357419 max: 0.397838 average: 0.0671454
ExecutionTime = 1.13 s  ClockTime = 1 s

Time = 75

smoothSolver:  Solving for Ux, Initial residual = 0.000272681, Final residual = 1.34803e-05, No Iterations 4
smoothSolver:  Solving for Uy, Initial residual = 0.000900243, Final residual = 5.4228e-05, No Iterations 4
GAMG:  Solving for p, Initial residual = 0.000477201, Final residual = 3.47988e-05, No Iterations 2
time step continuity errors : sum local = 1.0425e-05, global = 1.47487e-16, cumulative = -1.64236e-16
smoothSolver:  Solving for nuTilda, Initial residual = 0.00024217, Final residual = 1.39224e-05, No Iterations 4
bounding nuTilda, min: -0.00356098 max: 0.397838 average: 0.0670187
ExecutionTime = 1.14 s  ClockTime = 1 s

forces wings output:
    sum of forces:
        pressure : (0.0319725 1.8317 -5.0112e-21)
        viscous  : (0.245923 -0.00417714 -1.89402e-22)
        porous   : (0 0 0)
    sum of moments:
        pressure : (-0.091585 0.00159862 0.0277944)
        viscous  : (0.000208857 0.0122961 -3.30229e-05)
        porous   : (0 0 0)

Time = 76

smoothSolver:  Solving for Ux, Initial residual = 0.000266626, Final residual = 1.29771e-05, No Iterations 4
smoothSolver:  Solving for Uy, Initial residual = 0.000906857, Final residual = 5.45476e-05, No Iterations 4
GAMG:  Solving for p, Initial residual = 0.000484818, Final residual = 3.27416e-05, No Iterations 2
time step continuity errors : sum local = 9.81724e-06, global = -9.23874e-17, cumulative = -2.56624e-16
smoothSolver:  Solving for nuTilda, Initial residual = 0.00023314, Final residual = 1.33884e-05, No Iterations 4
bounding nuTilda, min: -0.00354797 max: 0.397838 average: 0.0668979
ExecutionTime = 1.16 s  ClockTime = 1 s

Time = 77

smoothSolver:  Solving for Ux, Initial residual = 0.000260295, Final residual = 1.24964e-05, No Iterations 4
smoothSolver:  Solving for Uy, Initial residual = 0.000908738, Final residual = 5.49296e-05, No Iterations 4
GAMG:  Solving for p, Initial residual = 0.000491058, Final residual = 3.00242e-05, No Iterations 2
time step continuity errors : sum local = 9.02384e-06, global = -3.39289e-17, cumulative = -2.90553e-16
smoothSolver:  Solving for nuTilda, Initial residual = 0.000224354, Final residual = 1.28758e-05, No Iterations 4
bounding nuTilda, min: -0.00353517 max: 0.397838 average: 0.0667829
ExecutionTime = 1.17 s  ClockTime = 1 s

Time = 78

smoothSolver:  Solving for Ux, Initial residual = 0.000254481, Final residual = 1.20917e-05, No Iterations 4
smoothSolver:  Solving for Uy, Initial residual = 0.000901655, Final residual = 5.49627e-05, No Iterations 4
GAMG:  Solving for p, Initial residual = 0.000501468, Final residual = 2.87991e-05, No Iterations 2
time step continuity errors : sum local = 8.67422e-06, global = 2.33707e-16, cumulative = -5.68453e-17
smoothSolver:  Solving for nuTilda, Initial residual = 0.0002159, Final residual = 1.23861e-05, No Iterations 4
bounding nuTilda, min: -0.00352255 max: 0.397839 average: 0.0666738
ExecutionTime = 1.19 s  ClockTime = 1 s

Time = 79

smoothSolver:  Solving for Ux, Initial residual = 0.000249176, Final residual = 1.17093e-05, No Iterations 4
smoothSolver:  Solving for Uy, Initial residual = 0.000883226, Final residual = 5.43833e-05, No Iterations 4
GAMG:  Solving for p, Initial residual = 0.000511877, Final residual = 2.86999e-05, No Iterations 2
time step continuity errors : sum local = 8.66418e-06, global = -1.08778e-16, cumulative = -1.65623e-16
smoothSolver:  Solving for nuTilda, Initial residual = 0.000208079, Final residual = 1.19143e-05, No Iterations 4
bounding nuTilda, min: -0.0035101 max: 0.397839 average: 0.0665705
ExecutionTime = 1.2 s  ClockTime = 1 s

Time = 80

smoothSolver:  Solving for Ux, Initial residual = 0.000243933, Final residual = 1.12991e-05, No Iterations 4
smoothSolver:  Solving for Uy, Initial residual = 0.000862339, Final residual = 5.32349e-05, No Iterations 4
GAMG:  Solving for p, Initial residual = 0.000523636, Final residual = 2.87691e-05, No Iterations 2
time step continuity errors : sum local = 8.4237e-06, global = 9.41242e-17, cumulative = -7.14991e-17
smoothSolver:  Solving for nuTilda, Initial residual = 0.000200407, Final residual = 1.14536e-05, No Iterations 4
bounding nuTilda, min: -0.0034978 max: 0.397839 average: 0.0664731
ExecutionTime = 1.22 s  ClockTime = 1 s

forces wings output:
    sum of forces:
        pressure : (0.0323049 1.85074 -4.89146e-21)
        viscous  : (0.245398 -0.00416186 -2.05961e-22)
        porous   : (0 0 0)
    sum of moments:
        pressure : (-0.0925371 0.00161524 0.0254701)
        viscous  : (0.000208093 0.0122699 -3.40565e-05)
        porous   : (0 0 0)

Time = 81

smoothSolver:  Solving for Ux, Initial residual = 0.000238177, Final residual = 1.0836e-05, No Iterations 4
smoothSolver:  Solving for Uy, Initial residual = 0.000833786, Final residual = 5.13858e-05, No Iterations 4
GAMG:  Solving for p, Initial residual = 0.000537828, Final residual = 2.73897e-05, No Iterations 2
time step continuity errors : sum local = 8.20234e-06, global = -1.23522e-16, cumulative = -1.95021e-16
smoothSolver:  Solving for nuTilda, Initial residual = 0.000193199, Final residual = 1.10166e-05, No Iterations 4
bounding nuTilda, min: -0.00348567 max: 0.39784 average: 0.0663814
ExecutionTime = 1.23 s  ClockTime = 1 s

Time = 82

smoothSolver:  Solving for Ux, Initial residual = 0.000232118, Final residual = 1.03493e-05, No Iterations 4
smoothSolver:  Solving for Uy, Initial residual = 0.000805285, Final residual = 4.93611e-05, No Iterations 4
GAMG:  Solving for p, Initial residual = 0.00055078, Final residual = 2.66613e-05, No Iterations 2
time step continuity errors : sum local = 7.99172e-06, global = -1.1865e-16, cumulative = -3.13672e-16
smoothSolver:  Solving for nuTilda, Initial residual = 0.000186245, Final residual = 1.05974e-05, No Iterations 4
bounding nuTilda, min: -0.00347365 max: 0.39784 average: 0.0662958
ExecutionTime = 1.25 s  ClockTime = 1 s

Time = 83

smoothSolver:  Solving for Ux, Initial residual = 0.000226069, Final residual = 9.84507e-06, No Iterations 4
smoothSolver:  Solving for Uy, Initial residual = 0.000781362, Final residual = 4.75656e-05, No Iterations 4
GAMG:  Solving for p, Initial residual = 0.000562928, Final residual = 2.6381e-05, No Iterations 2
time step continuity errors : sum local = 7.93543e-06, global = -1.20091e-16, cumulative = -4.33762e-16
smoothSolver:  Solving for nuTilda, Initial residual = 0.000179353, Final residual = 1.01947e-05, No Iterations 4
bounding nuTilda, min: -0.00346176 max: 0.397841 average: 0.0662163
ExecutionTime = 1.26 s  ClockTime = 1 s

Time = 84

smoothSolver:  Solving for Ux, Initial residual = 0.000220365, Final residual = 9.37017e-06, No Iterations 4
smoothSolver:  Solving for Uy, Initial residual = 0.000768343, Final residual = 4.64424e-05, No Iterations 4
GAMG:  Solving for p, Initial residual = 0.00057447, Final residual = 2.7161e-05, No Iterations 2
time step continuity errors : sum local = 8.19906e-06, global = 6.56299e-17, cumulative = -3.68133e-16
smoothSolver:  Solving for nuTilda, Initial residual = 0.000172635, Final residual = 9.79324e-06, No Iterations 4
bounding nuTilda, min: -0.00344997 max: 0.397842 average: 0.0661432
ExecutionTime = 1.28 s  ClockTime = 1 s

Time = 85

smoothSolver:  Solving for Ux, Initial residual = 0.000215293, Final residual = 8.97074e-06, No Iterations 4
smoothSolver:  Solving for Uy, Initial residual = 0.000760614, Final residual = 4.56328e-05, No Iterations 4
GAMG:  Solving for p, Initial residual = 0.000582734, Final residual = 2.76819e-05, No Iterations 2
time step continuity errors : sum local = 8.38564e-06, global = -1.87865e-16, cumulative = -5.55997e-16
smoothSolver:  Solving for nuTilda, Initial residual = 0.000165982, Final residual = 9.39271e-06, No Iterations 4
bounding nuTilda, min: -0.00343829 max: 0.397843 average: 0.0660766
ExecutionTime = 1.29 s  ClockTime = 1 s

forces wings output:
    sum of forces:
        pressure : (0.0328068 1.8795 -4.32604e-21)
        viscous  : (0.244964 -0.00415012 -2.50586e-22)
        porous   : (0 0 0)
    sum of moments:
        pressure : (-0.0939748 0.00164034 0.0203118)
        viscous  : (0.000207506 0.0122482 -3.57203e-05)
        porous   : (0 0 0)

Time = 86

smoothSolver:  Solving for Ux, Initial residual = 0.000210873, Final residual = 8.65985e-06, No Iterations 4
smoothSolver:  Solving for Uy, Initial residual = 0.000752681, Final residual = 4.50225e-05, No Iterations 4
GAMG:  Solving for p, Initial residual = 0.000590074, Final residual = 2.73702e-05, No Iterations 2
time step continuity errors : sum local = 8.32088e-06, global = 7.05223e-17, cumulative = -4.85475e-16
smoothSolver:  Solving for nuTilda, Initial residual = 0.000159614, Final residual = 8.99811e-06, No Iterations 4
bounding nuTilda, min: -0.00342672 max: 0.397844 average: 0.0660166
ExecutionTime = 1.31 s  ClockTime = 1 s

Time = 87

smoothSolver:  Solving for Ux, Initial residual = 0.000206771, Final residual = 8.4148e-06, No Iterations 4
smoothSolver:  Solving for Uy, Initial residual = 0.000741818, Final residual = 4.44192e-05, No Iterations 4
GAMG:  Solving for p, Initial residual = 0.000595079, Final residual = 5.82858e-05, No Iterations 1
time step continuity errors : sum local = 1.73515e-05, global = -1.31221e-16, cumulative = -6.16696e-16
smoothSolver:  Solving for nuTilda, Initial residual = 0.000153374, Final residual = 8.60148e-06, No Iterations 4
bounding nuTilda, min: -0.00341491 max: 0.397845 average: 0.065963
ExecutionTime = 1.32 s  ClockTime = 1 s

Time = 88

smoothSolver:  Solving for Ux, Initial residual = 0.000199846, Final residual = 7.95165e-06, No Iterations 4
smoothSolver:  Solving for Uy, Initial residual = 0.000710381, Final residual = 4.26717e-05, No Iterations 4
GAMG:  Solving for p, Initial residual = 0.000604508, Final residual = 3.29089e-05, No Iterations 2
time step continuity errors : sum local = 9.96665e-06, global = 1.60037e-16, cumulative = -4.56659e-16
smoothSolver:  Solving for nuTilda, Initial residual = 0.0001473, Final residual = 8.20387e-06, No Iterations 4
bounding nuTilda, min: -0.00340388 max: 0.397846 average: 0.0659157
ExecutionTime = 1.33 s  ClockTime = 1 s

Time = 89

smoothSolver:  Solving for Ux, Initial residual = 0.000196958, Final residual = 7.85704e-06, No Iterations 4
smoothSolver:  Solving for Uy, Initial residual = 0.000684806, Final residual = 4.15516e-05, No Iterations 4
GAMG:  Solving for p, Initial residual = 0.000595053, Final residual = 2.83102e-05, No Iterations 2
time step continuity errors : sum local = 8.63139e-06, global = -1.03021e-16, cumulative = -5.5968e-16
smoothSolver:  Solving for nuTilda, Initial residual = 0.000141442, Final residual = 7.79404e-06, No Iterations 4
bounding nuTilda, min: -0.00339264 max: 0.397847 average: 0.065874
ExecutionTime = 1.35 s  ClockTime = 1 s

Time = 90

smoothSolver:  Solving for Ux, Initial residual = 0.000192868, Final residual = 7.70412e-06, No Iterations 4
smoothSolver:  Solving for Uy, Initial residual = 0.000661648, Final residual = 4.03277e-05, No Iterations 4
GAMG:  Solving for p, Initial residual = 0.0005864, Final residual = 5.42108e-05, No Iterations 1
time step continuity errors : sum local = 1.62001e-05, global = -1.42746e-16, cumulative = -7.02426e-16
smoothSolver:  Solving for nuTilda, Initial residual = 0.000135673, Final residual = 7.36226e-06, No Iterations 4
bounding nuTilda, min: -0.00338113 max: 0.397849 average: 0.0658375
ExecutionTime = 1.36 s  ClockTime = 1 s

forces wings output:
    sum of forces:
        pressure : (0.0329405 1.88716 -4.5192e-21)
        viscous  : (0.244609 -0.00413886 -2.36828e-22)
        porous   : (0 0 0)
    sum of moments:
        pressure : (-0.0943578 0.00164702 0.0160709)
        viscous  : (0.000206943 0.0122304 -3.65782e-05)
        porous   : (0 0 0)

Time = 91

smoothSolver:  Solving for Ux, Initial residual = 0.000183792, Final residual = 7.24756e-06, No Iterations 4
smoothSolver:  Solving for Uy, Initial residual = 0.000628641, Final residual = 3.85485e-05, No Iterations 4
GAMG:  Solving for p, Initial residual = 0.000581634, Final residual = 2.5205e-05, No Iterations 2
time step continuity errors : sum local = 7.42116e-06, global = 1.11362e-17, cumulative = -6.9129e-16
smoothSolver:  Solving for nuTilda, Initial residual = 0.000130083, Final residual = 6.90538e-06, No Iterations 4
bounding nuTilda, min: -0.00337048 max: 0.39785 average: 0.0658055
ExecutionTime = 1.38 s  ClockTime = 1 s

Time = 92

smoothSolver:  Solving for Ux, Initial residual = 0.00017513, Final residual = 6.95173e-06, No Iterations 4
smoothSolver:  Solving for Uy, Initial residual = 0.000581684, Final residual = 3.57254e-05, No Iterations 4
GAMG:  Solving for p, Initial residual = 0.000564311, Final residual = 5.34077e-05, No Iterations 1
time step continuity errors : sum local = 1.57911e-05, global = -9.83648e-17, cumulative = -7.89655e-16
smoothSolver:  Solving for nuTilda, Initial residual = 0.000124707, Final residual = 6.43289e-06, No Iterations 4
bounding nuTilda, min: -0.00335923 max: 0.397852 average: 0.0657776
ExecutionTime = 1.39 s  ClockTime = 1 s

Time = 93

smoothSolver:  Solving for Ux, Initial residual = 0.000165235, Final residual = 6.52991e-06, No Iterations 4
smoothSolver:  Solving for Uy, Initial residual = 0.000545465, Final residual = 3.35075e-05, No Iterations 4
GAMG:  Solving for p, Initial residual = 0.000548453, Final residual = 2.29473e-05, No Iterations 2
time step continuity errors : sum local = 6.84539e-06, global = 1.43025e-17, cumulative = -7.75352e-16
smoothSolver:  Solving for nuTilda, Initial residual = 0.000119477, Final residual = 5.94966e-06, No Iterations 4
bounding nuTilda, min: -0.00334875 max: 0.397853 average: 0.0657531
ExecutionTime = 1.4 s  ClockTime = 1 s

Time = 94

smoothSolver:  Solving for Ux, Initial residual = 0.000156792, Final residual = 6.26268e-06, No Iterations 4
smoothSolver:  Solving for Uy, Initial residual = 0.000498146, Final residual = 3.04014e-05, No Iterations 4
GAMG:  Solving for p, Initial residual = 0.000522126, Final residual = 4.76141e-05, No Iterations 1
time step continuity errors : sum local = 1.40561e-05, global = -4.92702e-16, cumulative = -1.26805e-15
smoothSolver:  Solving for nuTilda, Initial residual = 0.000114211, Final residual = 5.47667e-06, No Iterations 4
bounding nuTilda, min: -0.00333773 max: 0.397855 average: 0.0657315
ExecutionTime = 1.42 s  ClockTime = 1 s

Time = 95

smoothSolver:  Solving for Ux, Initial residual = 0.000147259, Final residual = 5.87992e-06, No Iterations 4
smoothSolver:  Solving for Uy, Initial residual = 0.000468051, Final residual = 2.86226e-05, No Iterations 4
GAMG:  Solving for p, Initial residual = 0.000501159, Final residual = 2.04557e-05, No Iterations 2
time step continuity errors : sum local = 6.1294e-06, global = -2.70412e-16, cumulative = -1.53847e-15
smoothSolver:  Solving for nuTilda, Initial residual = 0.000108804, Final residual = 5.02709e-06, No Iterations 4
bounding nuTilda, min: -0.00332746 max: 0.397856 average: 0.0657123
ExecutionTime = 1.44 s  ClockTime = 1 s

forces wings output:
    sum of forces:
        pressure : (0.0334541 1.91658 -4.1081e-21)
        viscous  : (0.244318 -0.00412938 -2.77261e-22)
        porous   : (0 0 0)
    sum of moments:
        pressure : (-0.095829 0.0016727 0.0169816)
        viscous  : (0.000206469 0.0122159 -3.80018e-05)
        porous   : (0 0 0)

Time = 96

smoothSolver:  Solving for Ux, Initial residual = 0.000140268, Final residual = 5.70652e-06, No Iterations 4
smoothSolver:  Solving for Uy, Initial residual = 0.000439981, Final residual = 2.69971e-05, No Iterations 4
GAMG:  Solving for p, Initial residual = 0.000469281, Final residual = 4.27356e-05, No Iterations 1
time step continuity errors : sum local = 1.26675e-05, global = -1.74889e-17, cumulative = -1.55596e-15
smoothSolver:  Solving for nuTilda, Initial residual = 0.00010323, Final residual = 4.61875e-06, No Iterations 4
bounding nuTilda, min: -0.0033167 max: 0.397858 average: 0.0656951
ExecutionTime = 1.45 s  ClockTime = 1 s

Time = 97

smoothSolver:  Solving for Ux, Initial residual = 0.000131774, Final residual = 5.37512e-06, No Iterations 4
smoothSolver:  Solving for Uy, Initial residual = 0.000413848, Final residual = 2.54599e-05, No Iterations 4
GAMG:  Solving for p, Initial residual = 0.000443005, Final residual = 2.18909e-05, No Iterations 2
time step continuity errors : sum local = 6.64647e-06, global = 1.48644e-16, cumulative = -1.40731e-15
smoothSolver:  Solving for nuTilda, Initial residual = 9.75849e-05, Final residual = 4.24856e-06, No Iterations 4
bounding nuTilda, min: -0.00330662 max: 0.397859 average: 0.0656796
ExecutionTime = 1.47 s  ClockTime = 1 s

Time = 98

smoothSolver:  Solving for Ux, Initial residual = 0.000126874, Final residual = 5.30286e-06, No Iterations 4
smoothSolver:  Solving for Uy, Initial residual = 0.000390247, Final residual = 2.40532e-05, No Iterations 4
GAMG:  Solving for p, Initial residual = 0.000409252, Final residual = 3.75788e-05, No Iterations 1
time step continuity errors : sum local = 1.12252e-05, global = 8.77267e-17, cumulative = -1.31959e-15
smoothSolver:  Solving for nuTilda, Initial residual = 9.18844e-05, Final residual = 3.90682e-06, No Iterations 4
bounding nuTilda, min: -0.00329616 max: 0.397861 average: 0.0656655
ExecutionTime = 1.48 s  ClockTime = 1 s

Time = 99

smoothSolver:  Solving for Ux, Initial residual = 0.000119593, Final residual = 5.00271e-06, No Iterations 4
smoothSolver:  Solving for Uy, Initial residual = 0.000368879, Final residual = 2.27184e-05, No Iterations 4
GAMG:  Solving for p, Initial residual = 0.000382089, Final residual = 2.00565e-05, No Iterations 2
time step continuity errors : sum local = 5.98398e-06, global = 2.47804e-16, cumulative = -1.07178e-15
smoothSolver:  Solving for nuTilda, Initial residual = 8.61458e-05, Final residual = 3.58327e-06, No Iterations 4
bounding nuTilda, min: -0.00328626 max: 0.397863 average: 0.0656526
ExecutionTime = 1.5 s  ClockTime = 1 s

Time = 100

smoothSolver:  Solving for Ux, Initial residual = 0.000114356, Final residual = 4.86158e-06, No Iterations 4
smoothSolver:  Solving for Uy, Initial residual = 0.00034582, Final residual = 2.12863e-05, No Iterations 4
GAMG:  Solving for p, Initial residual = 0.000350938, Final residual = 3.4716e-05, No Iterations 1
time step continuity errors : sum local = 1.0247e-05, global = -8.67094e-17, cumulative = -1.15849e-15
smoothSolver:  Solving for nuTilda, Initial residual = 8.02905e-05, Final residual = 3.27088e-06, No Iterations 4
bounding nuTilda, min: -0.00327608 max: 0.397864 average: 0.0656407
ExecutionTime = 1.54 s  ClockTime = 1 s

forces wings output:
    sum of forces:
        pressure : (0.0335178 1.92023 -4.24692e-21)
        viscous  : (0.244101 -0.00412243 -2.57987e-22)
        porous   : (0 0 0)
    sum of moments:
        pressure : (-0.0960114 0.00167589 0.0113752)
        viscous  : (0.000206122 0.0122051 -3.8718e-05)
        porous   : (0 0 0)

Time = 101

smoothSolver:  Solving for Ux, Initial residual = 0.000107905, Final residual = 4.58058e-06, No Iterations 4
smoothSolver:  Solving for Uy, Initial residual = 0.000326364, Final residual = 2.00344e-05, No Iterations 4
GAMG:  Solving for p, Initial residual = 0.000326609, Final residual = 1.80138e-05, No Iterations 2
time step continuity errors : sum local = 5.31702e-06, global = 2.13428e-16, cumulative = -9.45063e-16
smoothSolver:  Solving for nuTilda, Initial residual = 7.43134e-05, Final residual = 2.96761e-06, No Iterations 4
bounding nuTilda, min: -0.00326643 max: 0.397866 average: 0.0656298
ExecutionTime = 1.55 s  ClockTime = 1 s

Time = 102

smoothSolver:  Solving for Ux, Initial residual = 0.000103743, Final residual = 4.45055e-06, No Iterations 4
smoothSolver:  Solving for Uy, Initial residual = 0.000302291, Final residual = 1.85029e-05, No Iterations 4
GAMG:  Solving for p, Initial residual = 0.000298487, Final residual = 1.397e-05, No Iterations 2
time step continuity errors : sum local = 4.09997e-06, global = -3.33225e-17, cumulative = -9.78385e-16
smoothSolver:  Solving for nuTilda, Initial residual = 6.82821e-05, Final residual = 2.6752e-06, No Iterations 4
bounding nuTilda, min: -0.00325675 max: 0.397867 average: 0.0656197
ExecutionTime = 1.57 s  ClockTime = 1 s

Time = 103

smoothSolver:  Solving for Ux, Initial residual = 9.94594e-05, Final residual = 4.29188e-06, No Iterations 4
smoothSolver:  Solving for Uy, Initial residual = 0.000283005, Final residual = 1.72379e-05, No Iterations 4
GAMG:  Solving for p, Initial residual = 0.000276393, Final residual = 1.25565e-05, No Iterations 2
time step continuity errors : sum local = 3.69766e-06, global = 6.07909e-18, cumulative = -9.72306e-16
smoothSolver:  Solving for nuTilda, Initial residual = 6.22755e-05, Final residual = 2.39655e-06, No Iterations 4
bounding nuTilda, min: -0.0032472 max: 0.397868 average: 0.0656103
ExecutionTime = 1.58 s  ClockTime = 1 s

Time = 104

smoothSolver:  Solving for Ux, Initial residual = 9.46834e-05, Final residual = 4.09962e-06, No Iterations 4
smoothSolver:  Solving for Uy, Initial residual = 0.000266162, Final residual = 1.62624e-05, No Iterations 4
GAMG:  Solving for p, Initial residual = 0.000256144, Final residual = 1.19693e-05, No Iterations 2
time step continuity errors : sum local = 3.51124e-06, global = 2.48437e-16, cumulative = -7.23869e-16
smoothSolver:  Solving for nuTilda, Initial residual = 5.63286e-05, Final residual = 2.13486e-06, No Iterations 4
bounding nuTilda, min: -0.00323779 max: 0.39787 average: 0.0656015
ExecutionTime = 1.59 s  ClockTime = 1 s

Time = 105

smoothSolver:  Solving for Ux, Initial residual = 9.01337e-05, Final residual = 3.91649e-06, No Iterations 4
smoothSolver:  Solving for Uy, Initial residual = 0.000256686, Final residual = 1.57563e-05, No Iterations 4
GAMG:  Solving for p, Initial residual = 0.000236921, Final residual = 1.10999e-05, No Iterations 2
time step continuity errors : sum local = 3.29074e-06, global = 6.53121e-17, cumulative = -6.58557e-16
smoothSolver:  Solving for nuTilda, Initial residual = 5.05232e-05, Final residual = 1.89333e-06, No Iterations 4
bounding nuTilda, min: -0.00322851 max: 0.397871 average: 0.0655934
ExecutionTime = 1.61 s  ClockTime = 2 s

forces wings output:
    sum of forces:
        pressure : (0.0338201 1.93755 -4.06727e-21)
        viscous  : (0.243927 -0.00411681 -2.80119e-22)
        porous   : (0 0 0)
    sum of moments:
        pressure : (-0.0968773 0.001691 0.0132009)
        viscous  : (0.000205841 0.0121964 -3.95131e-05)
        porous   : (0 0 0)

Time = 106

smoothSolver:  Solving for Ux, Initial residual = 8.62266e-05, Final residual = 3.77397e-06, No Iterations 4
smoothSolver:  Solving for Uy, Initial residual = 0.000247624, Final residual = 1.53057e-05, No Iterations 4
GAMG:  Solving for p, Initial residual = 0.000220542, Final residual = 1.10388e-05, No Iterations 2
time step continuity errors : sum local = 3.31297e-06, global = -6.40604e-17, cumulative = -7.22617e-16
smoothSolver:  Solving for nuTilda, Initial residual = 4.49134e-05, Final residual = 1.6746e-06, No Iterations 4
bounding nuTilda, min: -0.00321937 max: 0.397872 average: 0.0655858
ExecutionTime = 1.62 s  ClockTime = 2 s

Time = 107

smoothSolver:  Solving for Ux, Initial residual = 8.25875e-05, Final residual = 3.6386e-06, No Iterations 4
smoothSolver:  Solving for Uy, Initial residual = 0.000233142, Final residual = 1.45455e-05, No Iterations 4
GAMG:  Solving for p, Initial residual = 0.000205627, Final residual = 1.09933e-05, No Iterations 2
time step continuity errors : sum local = 3.25883e-06, global = -4.2705e-17, cumulative = -7.65322e-16
smoothSolver:  Solving for nuTilda, Initial residual = 3.9565e-05, Final residual = 1.48048e-06, No Iterations 4
bounding nuTilda, min: -0.00321036 max: 0.397873 average: 0.0655787
ExecutionTime = 1.64 s  ClockTime = 2 s

Time = 108

smoothSolver:  Solving for Ux, Initial residual = 7.89465e-05, Final residual = 3.48726e-06, No Iterations 4
smoothSolver:  Solving for Uy, Initial residual = 0.000216828, Final residual = 1.35705e-05, No Iterations 4
GAMG:  Solving for p, Initial residual = 0.00019151, Final residual = 9.91233e-06, No Iterations 2
time step continuity errors : sum local = 2.9704e-06, global = 4.23635e-16, cumulative = -3.41687e-16
smoothSolver:  Solving for nuTilda, Initial residual = 3.46741e-05, Final residual = 1.31188e-06, No Iterations 4
bounding nuTilda, min: -0.00320154 max: 0.397874 average: 0.065572
ExecutionTime = 1.65 s  ClockTime = 2 s

Time = 109

smoothSolver:  Solving for Ux, Initial residual = 7.54793e-05, Final residual = 3.33676e-06, No Iterations 4
smoothSolver:  Solving for Uy, Initial residual = 0.000202777, Final residual = 1.26474e-05, No Iterations 4
GAMG:  Solving for p, Initial residual = 0.000178851, Final residual = 8.7728e-06, No Iterations 2
time step continuity errors : sum local = 2.61704e-06, global = -1.03217e-16, cumulative = -4.44904e-16
smoothSolver:  Solving for nuTilda, Initial residual = 3.02138e-05, Final residual = 1.16821e-06, No Iterations 4
bounding nuTilda, min: -0.0031929 max: 0.397875 average: 0.0655657
ExecutionTime = 1.67 s  ClockTime = 2 s

Time = 110

smoothSolver:  Solving for Ux, Initial residual = 7.20901e-05, Final residual = 3.19234e-06, No Iterations 4
smoothSolver:  Solving for Uy, Initial residual = 0.000192019, Final residual = 1.19251e-05, No Iterations 4
GAMG:  Solving for p, Initial residual = 0.000167332, Final residual = 8.30569e-06, No Iterations 2
time step continuity errors : sum local = 2.46078e-06, global = 1.40337e-16, cumulative = -3.04567e-16
smoothSolver:  Solving for nuTilda, Initial residual = 2.62482e-05, Final residual = 1.04778e-06, No Iterations 4
bounding nuTilda, min: -0.00318441 max: 0.397876 average: 0.0655599
ExecutionTime = 1.68 s  ClockTime = 2 s

forces wings output:
    sum of forces:
        pressure : (0.033888 1.94144 -4.26318e-21)
        viscous  : (0.243791 -0.00411095 -2.66284e-22)
        porous   : (0 0 0)
    sum of moments:
        pressure : (-0.0970718 0.0016944 0.0100586)
[...]
time step continuity errors : sum local = 4.35962e-08, global = -4.78761e-17, cumulative = 7.01891e-15
smoothSolver:  Solving for nuTilda, Initial residual = 1.95851e-07, Final residual = 4.63493e-10, No Iterations 2
bounding nuTilda, min: -0.00294684 max: 0.397889 average: 0.0654568
ExecutionTime = 6.8 s  ClockTime = 7 s

Time = 474

smoothSolver:  Solving for Ux, Initial residual = 1.28007e-07, Final residual = 5.74905e-09, No Iterations 2
smoothSolver:  Solving for Uy, Initial residual = 2.58341e-07, Final residual = 1.74235e-08, No Iterations 2
GAMG:  Solving for p, Initial residual = 2.21632e-06, Final residual = 1.48822e-07, No Iterations 1
time step continuity errors : sum local = 4.41692e-08, global = 3.32701e-17, cumulative = 7.05218e-15
smoothSolver:  Solving for nuTilda, Initial residual = 1.94388e-07, Final residual = 4.57348e-10, No Iterations 2
bounding nuTilda, min: -0.00294684 max: 0.397889 average: 0.0654568
ExecutionTime = 6.81 s  ClockTime = 7 s

Time = 475

smoothSolver:  Solving for Ux, Initial residual = 1.26412e-07, Final residual = 5.59821e-09, No Iterations 2
smoothSolver:  Solving for Uy, Initial residual = 2.54615e-07, Final residual = 1.64373e-08, No Iterations 2
GAMG:  Solving for p, Initial residual = 2.22211e-06, Final residual = 1.47682e-07, No Iterations 1
time step continuity errors : sum local = 4.33922e-08, global = -4.02333e-16, cumulative = 6.64985e-15
smoothSolver:  Solving for nuTilda, Initial residual = 1.95816e-07, Final residual = 4.56634e-10, No Iterations 2
bounding nuTilda, min: -0.00294684 max: 0.397889 average: 0.0654568
ExecutionTime = 6.82 s  ClockTime = 7 s

forces wings output:
    sum of forces:
        pressure : (0.0357453 2.04784 -3.93066e-21)
        viscous  : (0.242485 -0.00407085 -3.12514e-22)
        porous   : (0 0 0)
    sum of moments:
        pressure : (-0.102392 0.00178727 0.00954735)
        viscous  : (0.000203543 0.0121242 -4.46221e-05)
        porous   : (0 0 0)

Time = 476

smoothSolver:  Solving for Ux, Initial residual = 1.27342e-07, Final residual = 5.57059e-09, No Iterations 2
smoothSolver:  Solving for Uy, Initial residual = 2.53151e-07, Final residual = 1.5868e-08, No Iterations 2
GAMG:  Solving for p, Initial residual = 2.21459e-06, Final residual = 1.48068e-07, No Iterations 1
time step continuity errors : sum local = 4.39023e-08, global = 7.63388e-21, cumulative = 6.64985e-15
smoothSolver:  Solving for nuTilda, Initial residual = 1.94354e-07, Final residual = 4.50964e-10, No Iterations 2
bounding nuTilda, min: -0.00294684 max: 0.397889 average: 0.0654568
ExecutionTime = 6.84 s  ClockTime = 7 s

Time = 477

smoothSolver:  Solving for Ux, Initial residual = 1.25753e-07, Final residual = 5.44824e-09, No Iterations 2
smoothSolver:  Solving for Uy, Initial residual = 2.54048e-07, Final residual = 1.62701e-08, No Iterations 2
GAMG:  Solving for p, Initial residual = 2.21973e-06, Final residual = 1.47836e-07, No Iterations 1
time step continuity errors : sum local = 4.33889e-08, global = 1.13698e-16, cumulative = 6.76355e-15
smoothSolver:  Solving for nuTilda, Initial residual = 1.95784e-07, Final residual = 4.50787e-10, No Iterations 2
bounding nuTilda, min: -0.00294684 max: 0.397889 average: 0.0654568
ExecutionTime = 6.85 s  ClockTime = 7 s

Time = 478

smoothSolver:  Solving for Ux, Initial residual = 1.27283e-07, Final residual = 5.58518e-09, No Iterations 2
smoothSolver:  Solving for Uy, Initial residual = 2.52346e-07, Final residual = 1.56574e-08, No Iterations 2
GAMG:  Solving for p, Initial residual = 2.21396e-06, Final residual = 1.47226e-07, No Iterations 1
time step continuity errors : sum local = 4.36157e-08, global = -4.70001e-17, cumulative = 6.71655e-15
smoothSolver:  Solving for nuTilda, Initial residual = 1.94326e-07, Final residual = 4.45908e-10, No Iterations 2
bounding nuTilda, min: -0.00294684 max: 0.397889 average: 0.0654568
ExecutionTime = 6.86 s  ClockTime = 7 s

Time = 479

smoothSolver:  Solving for Ux, Initial residual = 1.25649e-07, Final residual = 5.44356e-09, No Iterations 2
smoothSolver:  Solving for Uy, Initial residual = 2.53103e-07, Final residual = 1.60532e-08, No Iterations 2
GAMG:  Solving for p, Initial residual = 2.21826e-06, Final residual = 1.485e-07, No Iterations 1
time step continuity errors : sum local = 4.36068e-08, global = 1.43812e-16, cumulative = 6.86036e-15
smoothSolver:  Solving for nuTilda, Initial residual = 1.95758e-07, Final residual = 4.46147e-10, No Iterations 2
bounding nuTilda, min: -0.00294684 max: 0.397889 average: 0.0654568
ExecutionTime = 6.87 s  ClockTime = 7 s

Time = 480

smoothSolver:  Solving for Ux, Initial residual = 1.27179e-07, Final residual = 5.61007e-09, No Iterations 2
smoothSolver:  Solving for Uy, Initial residual = 2.51652e-07, Final residual = 1.55223e-08, No Iterations 2
GAMG:  Solving for p, Initial residual = 2.2133e-06, Final residual = 1.46998e-07, No Iterations 1
time step continuity errors : sum local = 4.35475e-08, global = 3.43186e-17, cumulative = 6.89468e-15
smoothSolver:  Solving for nuTilda, Initial residual = 1.94301e-07, Final residual = 4.4152e-10, No Iterations 2
bounding nuTilda, min: -0.00294684 max: 0.397889 average: 0.0654568
ExecutionTime = 6.89 s  ClockTime = 7 s

forces wings output:
    sum of forces:
        pressure : (0.0357453 2.04785 -3.9308e-21)
        viscous  : (0.242497 -0.00407056 -3.12777e-22)
        porous   : (0 0 0)
    sum of moments:
        pressure : (-0.102392 0.00178727 0.0095459)
        viscous  : (0.000203528 0.0121249 -4.47806e-05)
        porous   : (0 0 0)

Time = 481

smoothSolver:  Solving for Ux, Initial residual = 1.25287e-07, Final residual = 5.353e-09, No Iterations 2
smoothSolver:  Solving for Uy, Initial residual = 2.50537e-07, Final residual = 1.53839e-08, No Iterations 2
GAMG:  Solving for p, Initial residual = 2.21748e-06, Final residual = 1.48935e-07, No Iterations 1
time step continuity errors : sum local = 4.37136e-08, global = 1.33606e-16, cumulative = 7.02829e-15
smoothSolver:  Solving for nuTilda, Initial residual = 1.95732e-07, Final residual = 4.41598e-10, No Iterations 2
bounding nuTilda, min: -0.00294684 max: 0.397889 average: 0.0654568
ExecutionTime = 6.9 s  ClockTime = 7 s

Time = 482

smoothSolver:  Solving for Ux, Initial residual = 1.2637e-07, Final residual = 5.43557e-09, No Iterations 2
smoothSolver:  Solving for Uy, Initial residual = 2.51187e-07, Final residual = 1.54554e-08, No Iterations 2
GAMG:  Solving for p, Initial residual = 2.21232e-06, Final residual = 1.47547e-07, No Iterations 1
time step continuity errors : sum local = 4.37469e-08, global = -1.18027e-16, cumulative = 6.91026e-15
smoothSolver:  Solving for nuTilda, Initial residual = 1.94274e-07, Final residual = 4.36767e-10, No Iterations 2
bounding nuTilda, min: -0.00294684 max: 0.397889 average: 0.0654568
ExecutionTime = 6.91 s  ClockTime = 7 s

Time = 483

smoothSolver:  Solving for Ux, Initial residual = 1.24485e-07, Final residual = 5.14559e-09, No Iterations 2
smoothSolver:  Solving for Uy, Initial residual = 2.47671e-07, Final residual = 1.45739e-08, No Iterations 2
GAMG:  Solving for p, Initial residual = 2.21745e-06, Final residual = 1.48798e-07, No Iterations 1
time step continuity errors : sum local = 4.37205e-08, global = 1.03161e-16, cumulative = 7.01342e-15
smoothSolver:  Solving for nuTilda, Initial residual = 1.95704e-07, Final residual = 4.36362e-10, No Iterations 2
bounding nuTilda, min: -0.00294684 max: 0.397889 average: 0.0654568
ExecutionTime = 6.93 s  ClockTime = 7 s

Time = 484

smoothSolver:  Solving for Ux, Initial residual = 1.25298e-07, Final residual = 5.17494e-09, No Iterations 2
smoothSolver:  Solving for Uy, Initial residual = 2.51285e-07, Final residual = 1.55194e-08, No Iterations 2
GAMG:  Solving for p, Initial residual = 2.21108e-06, Final residual = 1.47737e-07, No Iterations 1
time step continuity errors : sum local = 4.38514e-08, global = -1.92143e-16, cumulative = 6.82128e-15
smoothSolver:  Solving for nuTilda, Initial residual = 1.94246e-07, Final residual = 4.31215e-10, No Iterations 2
bounding nuTilda, min: -0.00294684 max: 0.397889 average: 0.0654568
ExecutionTime = 6.94 s  ClockTime = 7 s

Time = 485

smoothSolver:  Solving for Ux, Initial residual = 1.2373e-07, Final residual = 4.96834e-09, No Iterations 2
smoothSolver:  Solving for Uy, Initial residual = 2.4729e-07, Final residual = 1.44805e-08, No Iterations 2
GAMG:  Solving for p, Initial residual = 2.21708e-06, Final residual = 1.47771e-07, No Iterations 1
time step continuity errors : sum local = 4.34598e-08, global = 5.49624e-17, cumulative = 6.87624e-15
smoothSolver:  Solving for nuTilda, Initial residual = 1.95676e-07, Final residual = 4.30801e-10, No Iterations 2
bounding nuTilda, min: -0.00294684 max: 0.397889 average: 0.0654568
ExecutionTime = 6.95 s  ClockTime = 7 s

forces wings output:
    sum of forces:
        pressure : (0.0357455 2.04785 -3.9306e-21)
        viscous  : (0.242485 -0.00407085 -3.12519e-22)
        porous   : (0 0 0)
    sum of moments:
        pressure : (-0.102393 0.00178727 0.00954733)
        viscous  : (0.000203543 0.0121242 -4.46222e-05)
        porous   : (0 0 0)

Time = 486

smoothSolver:  Solving for Ux, Initial residual = 1.24532e-07, Final residual = 4.97153e-09, No Iterations 2
smoothSolver:  Solving for Uy, Initial residual = 2.51113e-07, Final residual = 1.55407e-08, No Iterations 2
GAMG:  Solving for p, Initial residual = 2.20959e-06, Final residual = 1.476e-07, No Iterations 1
time step continuity errors : sum local = 4.38356e-08, global = 9.15432e-17, cumulative = 6.96779e-15
smoothSolver:  Solving for nuTilda, Initial residual = 1.94218e-07, Final residual = 4.2549e-10, No Iterations 2
bounding nuTilda, min: -0.00294684 max: 0.397889 average: 0.0654568
ExecutionTime = 6.96 s  ClockTime = 7 s

Time = 487

smoothSolver:  Solving for Ux, Initial residual = 1.22997e-07, Final residual = 4.81224e-09, No Iterations 2
smoothSolver:  Solving for Uy, Initial residual = 2.47726e-07, Final residual = 1.47065e-08, No Iterations 2
GAMG:  Solving for p, Initial residual = 2.21593e-06, Final residual = 1.46618e-07, No Iterations 1
time step continuity errors : sum local = 4.31256e-08, global = 2.04692e-16, cumulative = 7.17248e-15
smoothSolver:  Solving for nuTilda, Initial residual = 1.9565e-07, Final residual = 4.25217e-10, No Iterations 2
bounding nuTilda, min: -0.00294684 max: 0.397889 average: 0.0654568
ExecutionTime = 6.98 s  ClockTime = 7 s

Time = 488

smoothSolver:  Solving for Ux, Initial residual = 1.23909e-07, Final residual = 4.80457e-09, No Iterations 2
smoothSolver:  Solving for Uy, Initial residual = 2.47772e-07, Final residual = 1.46573e-08, No Iterations 2
GAMG:  Solving for p, Initial residual = 2.20801e-06, Final residual = 1.46933e-07, No Iterations 1
time step continuity errors : sum local = 4.36265e-08, global = 1.40909e-17, cumulative = 7.18657e-15
smoothSolver:  Solving for nuTilda, Initial residual = 1.94192e-07, Final residual = 4.19823e-10, No Iterations 2
bounding nuTilda, min: -0.00294684 max: 0.397889 average: 0.0654568
ExecutionTime = 6.99 s  ClockTime = 7 s

Time = 489

smoothSolver:  Solving for Ux, Initial residual = 1.2232e-07, Final residual = 4.67744e-09, No Iterations 2
smoothSolver:  Solving for Uy, Initial residual = 2.46332e-07, Final residual = 1.43966e-08, No Iterations 2
GAMG:  Solving for p, Initial residual = 2.21389e-06, Final residual = 1.46323e-07, No Iterations 1
time step continuity errors : sum local = 4.30098e-08, global = 1.04303e-16, cumulative = 7.29087e-15
smoothSolver:  Solving for nuTilda, Initial residual = 1.95625e-07, Final residual = 4.19914e-10, No Iterations 2
bounding nuTilda, min: -0.00294684 max: 0.397889 average: 0.0654568
ExecutionTime = 7 s  ClockTime = 7 s

Time = 490

smoothSolver:  Solving for Ux, Initial residual = 1.23433e-07, Final residual = 4.69257e-09, No Iterations 2
smoothSolver:  Solving for Uy, Initial residual = 2.4502e-07, Final residual = 1.38991e-08, No Iterations 2
GAMG:  Solving for p, Initial residual = 2.20689e-06, Final residual = 1.46045e-07, No Iterations 1
time step continuity errors : sum local = 4.33308e-08, global = -1.79818e-16, cumulative = 7.11105e-15
smoothSolver:  Solving for nuTilda, Initial residual = 1.94167e-07, Final residual = 4.14772e-10, No Iterations 2
bounding nuTilda, min: -0.00294684 max: 0.397889 average: 0.0654568
ExecutionTime = 7.01 s  ClockTime = 7 s

forces wings output:
    sum of forces:
        pressure : (0.0357454 2.04785 -3.9308e-21)
        viscous  : (0.242497 -0.00407055 -3.12777e-22)
        porous   : (0 0 0)
    sum of moments:
        pressure : (-0.102393 0.00178727 0.009546)
        viscous  : (0.000203528 0.0121248 -4.47807e-05)
        porous   : (0 0 0)

Time = 491

smoothSolver:  Solving for Ux, Initial residual = 1.21863e-07, Final residual = 4.57969e-09, No Iterations 2
smoothSolver:  Solving for Uy, Initial residual = 2.45406e-07, Final residual = 1.41841e-08, No Iterations 2
GAMG:  Solving for p, Initial residual = 2.21199e-06, Final residual = 1.46245e-07, No Iterations 1
time step continuity errors : sum local = 4.29518e-08, global = -4.49204e-17, cumulative = 7.06613e-15
smoothSolver:  Solving for nuTilda, Initial residual = 1.95599e-07, Final residual = 4.1492e-10, No Iterations 2
bounding nuTilda, min: -0.00294684 max: 0.397889 average: 0.0654568
ExecutionTime = 7.03 s  ClockTime = 7 s

Time = 492

smoothSolver:  Solving for Ux, Initial residual = 1.23335e-07, Final residual = 4.69692e-09, No Iterations 2
smoothSolver:  Solving for Uy, Initial residual = 2.43244e-07, Final residual = 1.34276e-08, No Iterations 2
GAMG:  Solving for p, Initial residual = 2.20625e-06, Final residual = 1.45348e-07, No Iterations 1
time step continuity errors : sum local = 4.3101e-08, global = -1.02596e-16, cumulative = 6.96354e-15
smoothSolver:  Solving for nuTilda, Initial residual = 1.94143e-07, Final residual = 4.10191e-10, No Iterations 2
bounding nuTilda, min: -0.00294684 max: 0.397889 average: 0.0654568
ExecutionTime = 7.04 s  ClockTime = 7 s

Time = 493

smoothSolver:  Solving for Ux, Initial residual = 1.21654e-07, Final residual = 4.53381e-09, No Iterations 2
smoothSolver:  Solving for Uy, Initial residual = 2.43264e-07, Final residual = 1.36125e-08, No Iterations 2
GAMG:  Solving for p, Initial residual = 2.2107e-06, Final residual = 1.46709e-07, No Iterations 1
time step continuity errors : sum local = 4.30768e-08, global = -9.1637e-17, cumulative = 6.8719e-15
smoothSolver:  Solving for nuTilda, Initial residual = 1.95576e-07, Final residual = 4.10553e-10, No Iterations 2
bounding nuTilda, min: -0.00294684 max: 0.397889 average: 0.0654568
ExecutionTime = 7.05 s  ClockTime = 7 s

Time = 494

smoothSolver:  Solving for Ux, Initial residual = 1.23137e-07, Final residual = 4.68211e-09, No Iterations 2
smoothSolver:  Solving for Uy, Initial residual = 2.41401e-07, Final residual = 1.29629e-08, No Iterations 2
GAMG:  Solving for p, Initial residual = 2.20569e-06, Final residual = 1.45495e-07, No Iterations 1
time step continuity errors : sum local = 4.31488e-08, global = 7.27767e-17, cumulative = 6.94468e-15
smoothSolver:  Solving for nuTilda, Initial residual = 1.9412e-07, Final residual = 4.06128e-10, No Iterations 2
bounding nuTilda, min: -0.00294684 max: 0.397889 average: 0.0654568
ExecutionTime = 7.06 s  ClockTime = 7 s

Time = 495

smoothSolver:  Solving for Ux, Initial residual = 1.21337e-07, Final residual = 4.45133e-09, No Iterations 2
smoothSolver:  Solving for Uy, Initial residual = 2.40016e-07, Final residual = 1.27161e-08, No Iterations 2
GAMG:  Solving for p, Initial residual = 2.21036e-06, Final residual = 1.4709e-07, No Iterations 1
time step continuity errors : sum local = 4.321e-08, global = -4.00696e-17, cumulative = 6.90461e-15
smoothSolver:  Solving for nuTilda, Initial residual = 1.95552e-07, Final residual = 4.0651e-10, No Iterations 2
bounding nuTilda, min: -0.00294684 max: 0.397889 average: 0.0654568
ExecutionTime = 7.07 s  ClockTime = 7 s

forces wings output:
    sum of forces:
        pressure : (0.0357455 2.04785 -3.93066e-21)
        viscous  : (0.242485 -0.00407085 -3.12517e-22)
        porous   : (0 0 0)
    sum of moments:
        pressure : (-0.102393 0.00178727 0.00954693)
        viscous  : (0.000203542 0.0121242 -4.46223e-05)
        porous   : (0 0 0)

Time = 496

smoothSolver:  Solving for Ux, Initial residual = 1.22522e-07, Final residual = 4.5463e-09, No Iterations 2
smoothSolver:  Solving for Uy, Initial residual = 2.40834e-07, Final residual = 1.27985e-08, No Iterations 2
GAMG:  Solving for p, Initial residual = 2.20493e-06, Final residual = 1.45993e-07, No Iterations 1
time step continuity errors : sum local = 4.33258e-08, global = -5.67089e-17, cumulative = 6.8479e-15
smoothSolver:  Solving for nuTilda, Initial residual = 1.94097e-07, Final residual = 4.02186e-10, No Iterations 2
bounding nuTilda, min: -0.00294684 max: 0.397889 average: 0.0654568
ExecutionTime = 7.09 s  ClockTime = 7 s

Time = 497

smoothSolver:  Solving for Ux, Initial residual = 1.20856e-07, Final residual = 4.33163e-09, No Iterations 2
smoothSolver:  Solving for Uy, Initial residual = 2.38226e-07, Final residual = 1.21555e-08, No Iterations 2
GAMG:  Solving for p, Initial residual = 2.21041e-06, Final residual = 1.46878e-07, No Iterations 1
time step continuity errors : sum local = 4.31846e-08, global = -3.74534e-16, cumulative = 6.47336e-15
smoothSolver:  Solving for nuTilda, Initial residual = 1.95529e-07, Final residual = 4.02442e-10, No Iterations 2
bounding nuTilda, min: -0.00294684 max: 0.397889 average: 0.0654568
ExecutionTime = 7.1 s  ClockTime = 7 s

Time = 498

smoothSolver:  Solving for Ux, Initial residual = 1.21872e-07, Final residual = 4.38508e-09, No Iterations 2
smoothSolver:  Solving for Uy, Initial residual = 2.41617e-07, Final residual = 1.30348e-08, No Iterations 2
GAMG:  Solving for p, Initial residual = 2.2039e-06, Final residual = 1.46106e-07, No Iterations 1
time step continuity errors : sum local = 4.33924e-08, global = -3.61811e-17, cumulative = 6.43718e-15
smoothSolver:  Solving for nuTilda, Initial residual = 1.94075e-07, Final residual = 3.98176e-10, No Iterations 2
bounding nuTilda, min: -0.00294684 max: 0.397889 average: 0.0654568
ExecutionTime = 7.11 s  ClockTime = 7 s

Time = 499

smoothSolver:  Solving for Ux, Initial residual = 1.20379e-07, Final residual = 4.22902e-09, No Iterations 2
smoothSolver:  Solving for Uy, Initial residual = 2.3878e-07, Final residual = 1.23165e-08, No Iterations 2
GAMG:  Solving for p, Initial residual = 2.21001e-06, Final residual = 1.4608e-07, No Iterations 1
time step continuity errors : sum local = 4.29755e-08, global = 1.22673e-16, cumulative = 6.55986e-15
smoothSolver:  Solving for nuTilda, Initial residual = 1.9551e-07, Final residual = 3.98794e-10, No Iterations 2
bounding nuTilda, min: -0.00294684 max: 0.397889 average: 0.0654568
ExecutionTime = 7.13 s  ClockTime = 7 s

Time = 500

smoothSolver:  Solving for Ux, Initial residual = 1.21383e-07, Final residual = 4.2574e-09, No Iterations 2
smoothSolver:  Solving for Uy, Initial residual = 2.41845e-07, Final residual = 1.31484e-08, No Iterations 2
GAMG:  Solving for p, Initial residual = 2.20265e-06, Final residual = 1.45963e-07, No Iterations 1
time step continuity errors : sum local = 4.3363e-08, global = -1.97445e-16, cumulative = 6.36241e-15
smoothSolver:  Solving for nuTilda, Initial residual = 1.94056e-07, Final residual = 3.94449e-10, No Iterations 2
bounding nuTilda, min: -0.00294684 max: 0.397889 average: 0.0654568
ExecutionTime = 7.17 s  ClockTime = 7 s

forces wings output:
    sum of forces:
        pressure : (0.0357455 2.04786 -3.93071e-21)
        viscous  : (0.242497 -0.00407055 -3.12782e-22)
        porous   : (0 0 0)
    sum of moments:
        pressure : (-0.102393 0.00178728 0.00954611)
        viscous  : (0.000203528 0.0121248 -4.47807e-05)
        porous   : (0 0 0)

End

