/*---------------------------------------------------------------------------*\
| =========                 |                                                 |
| \\      /  F ield         | OpenFOAM: The Open Source CFD Toolbox           |
|  \\    /   O peration     | Version:  2.3.0                                 |
|   \\  /    A nd           | Web:      www.OpenFOAM.org                      |
|    \\/     M anipulation  |                                                 |
\*---------------------------------------------------------------------------*/
Build  : 2.3.0-f5222ca19ce6
Exec   : simpleFoam -case Runs/first_flatplate_300_0/case
Date   : Jan 11 2015
Time   : 12:32:25
Host   : "lordvon-XPS-8300"
PID    : 5741
Case   : Runs/first_flatplate_300_0/case
nProcs : 1
sigFpe : Enabling floating point exception trapping (FOAM_SIGFPE).
fileModificationChecking : Monitoring run-time modified files using timeStampMaster
allowSystemOperations : Disallowing user-supplied system call operations

// * * * * * * * * * * * * * * * * * * * * * * * * * * * * * * * * * * * * * //
Create time

Create mesh for time = 0

Reading field p

Reading field U

Reading/calculating face flux field phi

Selecting incompressible transport model Newtonian
Selecting RAS turbulence model SpalartAllmaras
SpalartAllmarasCoeffs
{
    sigmaNut        0.66666;
    kappa           0.41;
    Cb1             0.1355;
    Cb2             0.622;
    Cw2             0.3;
    Cw3             2;
    Cv1             7.1;
    Cv2             5;
}

    Employing Ashford correction
No finite volume options present


SIMPLE: convergence criteria
    field p	 tolerance 1e-12
    field U	 tolerance 1e-12
    field nuTilda	 tolerance 1e-12


Starting time loop

forces wings:
    Not including porosity effects

Time = 1

smoothSolver:  Solving for Ux, Initial residual = 1, Final residual = 0.00628871, No Iterations 6
smoothSolver:  Solving for Uy, Initial residual = 1, Final residual = 0.00584466, No Iterations 6
GAMG:  Solving for p, Initial residual = 1, Final residual = 0.00572422, No Iterations 4
time step continuity errors : sum local = 0.000517404, global = 1.12576e-16, cumulative = 1.12576e-16
smoothSolver:  Solving for nuTilda, Initial residual = 1, Final residual = 0.00392818, No Iterations 4
ExecutionTime = 0.34 s  ClockTime = 0 s

Time = 2

smoothSolver:  Solving for Ux, Initial residual = 0.272079, Final residual = 0.00195333, No Iterations 6
smoothSolver:  Solving for Uy, Initial residual = 0.438442, Final residual = 0.00427841, No Iterations 6
GAMG:  Solving for p, Initial residual = 0.653086, Final residual = 0.00332875, No Iterations 4
time step continuity errors : sum local = 0.000518127, global = 2.22982e-16, cumulative = 3.35558e-16
smoothSolver:  Solving for nuTilda, Initial residual = 0.186296, Final residual = 0.000733291, No Iterations 6
ExecutionTime = 0.42 s  ClockTime = 0 s

Time = 3

smoothSolver:  Solving for Ux, Initial residual = 0.15607, Final residual = 0.00133842, No Iterations 6
smoothSolver:  Solving for Uy, Initial residual = 0.306847, Final residual = 0.000728583, No Iterations 8
GAMG:  Solving for p, Initial residual = 0.433147, Final residual = 0.00428482, No Iterations 3
time step continuity errors : sum local = 0.000848349, global = 1.78203e-16, cumulative = 5.13761e-16
smoothSolver:  Solving for nuTilda, Initial residual = 0.0954997, Final residual = 0.000889036, No Iterations 6
ExecutionTime = 0.5 s  ClockTime = 0 s

Time = 4

smoothSolver:  Solving for Ux, Initial residual = 0.107379, Final residual = 0.000929195, No Iterations 6
smoothSolver:  Solving for Uy, Initial residual = 0.200075, Final residual = 0.00198227, No Iterations 6
GAMG:  Solving for p, Initial residual = 0.300608, Final residual = 0.00212514, No Iterations 4
time step continuity errors : sum local = 0.000487198, global = 1.16627e-16, cumulative = 6.30388e-16
smoothSolver:  Solving for nuTilda, Initial residual = 0.0722099, Final residual = 0.000214588, No Iterations 8
ExecutionTime = 0.58 s  ClockTime = 0 s

Time = 5

smoothSolver:  Solving for Ux, Initial residual = 0.0778639, Final residual = 0.000615892, No Iterations 6
smoothSolver:  Solving for Uy, Initial residual = 0.129406, Final residual = 0.001195, No Iterations 6
GAMG:  Solving for p, Initial residual = 0.241211, Final residual = 0.00174883, No Iterations 4
time step continuity errors : sum local = 0.000442755, global = 1.48916e-16, cumulative = 7.79304e-16
smoothSolver:  Solving for nuTilda, Initial residual = 0.0589292, Final residual = 0.000195436, No Iterations 8
ExecutionTime = 0.66 s  ClockTime = 0 s

forces wings output:
    sum of forces:
        pressure : (-9.32458e-19 0.145817 -1.8614e-36)
        viscous  : (0.536968 1.21549e-07 7.92278e-39)
        porous   : (0 0 0)
    sum of moments:
        pressure : (-0.00729086 -4.66229e-20 0.0332574)
        viscous  : (-6.07744e-09 0.0268484 8.69692e-10)
        porous   : (0 0 0)

Time = 6

smoothSolver:  Solving for Ux, Initial residual = 0.0593914, Final residual = 0.000411846, No Iterations 6
smoothSolver:  Solving for Uy, Initial residual = 0.0823921, Final residual = 0.000805716, No Iterations 6
GAMG:  Solving for p, Initial residual = 0.199776, Final residual = 0.00113095, No Iterations 4
time step continuity errors : sum local = 0.000308203, global = 1.10233e-17, cumulative = 7.90327e-16
smoothSolver:  Solving for nuTilda, Initial residual = 0.0487456, Final residual = 0.000170684, No Iterations 8
ExecutionTime = 0.75 s  ClockTime = 0 s

Time = 7

smoothSolver:  Solving for Ux, Initial residual = 0.0470172, Final residual = 0.000308478, No Iterations 6
smoothSolver:  Solving for Uy, Initial residual = 0.0667987, Final residual = 0.000159983, No Iterations 8
GAMG:  Solving for p, Initial residual = 0.169594, Final residual = 0.000923553, No Iterations 4
time step continuity errors : sum local = 0.000264129, global = 3.26443e-17, cumulative = 8.22971e-16
smoothSolver:  Solving for nuTilda, Initial residual = 0.0409935, Final residual = 0.000149374, No Iterations 8
ExecutionTime = 0.84 s  ClockTime = 0 s

Time = 8

smoothSolver:  Solving for Ux, Initial residual = 0.0374534, Final residual = 0.000258362, No Iterations 6
smoothSolver:  Solving for Uy, Initial residual = 0.0685814, Final residual = 0.000160409, No Iterations 8
GAMG:  Solving for p, Initial residual = 0.144724, Final residual = 0.000799379, No Iterations 4
time step continuity errors : sum local = 0.000236965, global = -8.93711e-17, cumulative = 7.336e-16
smoothSolver:  Solving for nuTilda, Initial residual = 0.0352121, Final residual = 0.000131486, No Iterations 8
ExecutionTime = 0.92 s  ClockTime = 0 s

Time = 9

smoothSolver:  Solving for Ux, Initial residual = 0.0308238, Final residual = 0.000221354, No Iterations 6
smoothSolver:  Solving for Uy, Initial residual = 0.0600813, Final residual = 0.000147749, No Iterations 8
GAMG:  Solving for p, Initial residual = 0.127625, Final residual = 0.000933721, No Iterations 4
time step continuity errors : sum local = 0.000284883, global = 1.89656e-16, cumulative = 9.23256e-16
smoothSolver:  Solving for nuTilda, Initial residual = 0.0305974, Final residual = 0.000116009, No Iterations 8
ExecutionTime = 1 s  ClockTime = 1 s

Time = 10

smoothSolver:  Solving for Ux, Initial residual = 0.0258499, Final residual = 0.000178704, No Iterations 6
smoothSolver:  Solving for Uy, Initial residual = 0.0506205, Final residual = 0.000480624, No Iterations 6
GAMG:  Solving for p, Initial residual = 0.112029, Final residual = 0.000535735, No Iterations 5
time step continuity errors : sum local = 0.000166795, global = 8.50895e-17, cumulative = 1.00835e-15
smoothSolver:  Solving for nuTilda, Initial residual = 0.026875, Final residual = 0.00010303, No Iterations 8
ExecutionTime = 1.09 s  ClockTime = 1 s

forces wings output:
    sum of forces:
        pressure : (5.57438e-19 -0.077703 -6.02105e-37)
        viscous  : (0.521872 -6.54256e-07 4.85246e-39)
        porous   : (0 0 0)
    sum of moments:
        pressure : (0.00388515 2.78719e-20 -0.0201741)
        viscous  : (3.27128e-08 0.0260936 -1.59141e-08)
        porous   : (0 0 0)

Time = 11

smoothSolver:  Solving for Ux, Initial residual = 0.0233181, Final residual = 0.000155189, No Iterations 6
smoothSolver:  Solving for Uy, Initial residual = 0.067793, Final residual = 0.000527391, No Iterations 6
GAMG:  Solving for p, Initial residual = 0.0990985, Final residual = 0.000984691, No Iterations 4
time step continuity errors : sum local = 0.000310729, global = 8.89036e-17, cumulative = 1.09725e-15
smoothSolver:  Solving for nuTilda, Initial residual = 0.0238132, Final residual = 9.22095e-05, No Iterations 8
ExecutionTime = 1.18 s  ClockTime = 1 s

Time = 12

smoothSolver:  Solving for Ux, Initial residual = 0.0215358, Final residual = 0.000146917, No Iterations 6
smoothSolver:  Solving for Uy, Initial residual = 0.0791246, Final residual = 0.000644056, No Iterations 6
GAMG:  Solving for p, Initial residual = 0.0853693, Final residual = 0.000590412, No Iterations 4
time step continuity errors : sum local = 0.000188005, global = 9.11826e-17, cumulative = 1.18843e-15
smoothSolver:  Solving for nuTilda, Initial residual = 0.021358, Final residual = 8.32629e-05, No Iterations 8
ExecutionTime = 1.26 s  ClockTime = 1 s

Time = 13

smoothSolver:  Solving for Ux, Initial residual = 0.0191915, Final residual = 0.000135033, No Iterations 6
smoothSolver:  Solving for Uy, Initial residual = 0.0742907, Final residual = 0.000666015, No Iterations 6
GAMG:  Solving for p, Initial residual = 0.0750103, Final residual = 0.000637479, No Iterations 3
time step continuity errors : sum local = 0.000203924, global = 1.53332e-16, cumulative = 1.34176e-15
smoothSolver:  Solving for nuTilda, Initial residual = 0.0192772, Final residual = 7.57822e-05, No Iterations 8
ExecutionTime = 1.34 s  ClockTime = 1 s

Time = 14

smoothSolver:  Solving for Ux, Initial residual = 0.0159044, Final residual = 0.000110093, No Iterations 6
smoothSolver:  Solving for Uy, Initial residual = 0.0586447, Final residual = 0.000572065, No Iterations 6
GAMG:  Solving for p, Initial residual = 0.0667973, Final residual = 0.000404588, No Iterations 4
time step continuity errors : sum local = 0.000129646, global = 1.35317e-16, cumulative = 1.47708e-15
smoothSolver:  Solving for nuTilda, Initial residual = 0.0174084, Final residual = 6.94417e-05, No Iterations 8
ExecutionTime = 1.42 s  ClockTime = 1 s

Time = 15

smoothSolver:  Solving for Ux, Initial residual = 0.0125629, Final residual = 7.67574e-05, No Iterations 6
smoothSolver:  Solving for Uy, Initial residual = 0.0406992, Final residual = 9.3131e-05, No Iterations 8
GAMG:  Solving for p, Initial residual = 0.0583276, Final residual = 0.000399893, No Iterations 4
time step continuity errors : sum local = 0.000128247, global = 8.00478e-17, cumulative = 1.55713e-15
smoothSolver:  Solving for nuTilda, Initial residual = 0.0157735, Final residual = 6.41257e-05, No Iterations 8
ExecutionTime = 1.5 s  ClockTime = 1 s

forces wings output:
    sum of forces:
        pressure : (-2.82066e-18 0.503027 -3.91015e-37)
        viscous  : (0.506523 8.32204e-07 4.05089e-39)
        porous   : (0 0 0)
    sum of moments:
        pressure : (-0.0251513 -1.41033e-19 0.113105)
        viscous  : (-4.16102e-08 0.0253261 2.3593e-08)
        porous   : (0 0 0)

Time = 16

smoothSolver:  Solving for Ux, Initial residual = 0.0103764, Final residual = 6.02247e-05, No Iterations 6
smoothSolver:  Solving for Uy, Initial residual = 0.0279721, Final residual = 6.93658e-05, No Iterations 8
GAMG:  Solving for p, Initial residual = 0.0514298, Final residual = 0.000257002, No Iterations 4
time step continuity errors : sum local = 8.24517e-05, global = 6.1528e-17, cumulative = 1.61866e-15
smoothSolver:  Solving for nuTilda, Initial residual = 0.0143651, Final residual = 5.95693e-05, No Iterations 8
ExecutionTime = 1.58 s  ClockTime = 1 s

Time = 17

smoothSolver:  Solving for Ux, Initial residual = 0.00898227, Final residual = 4.97958e-05, No Iterations 6
smoothSolver:  Solving for Uy, Initial residual = 0.0233986, Final residual = 5.98996e-05, No Iterations 8
GAMG:  Solving for p, Initial residual = 0.044471, Final residual = 0.000188344, No Iterations 4
time step continuity errors : sum local = 6.04333e-05, global = 1.61185e-16, cumulative = 1.77984e-15
smoothSolver:  Solving for nuTilda, Initial residual = 0.013138, Final residual = 5.56169e-05, No Iterations 8
ExecutionTime = 1.66 s  ClockTime = 1 s

Time = 18

smoothSolver:  Solving for Ux, Initial residual = 0.00783037, Final residual = 4.26115e-05, No Iterations 6
smoothSolver:  Solving for Uy, Initial residual = 0.0225809, Final residual = 5.64109e-05, No Iterations 8
GAMG:  Solving for p, Initial residual = 0.0387444, Final residual = 0.000257368, No Iterations 4
time step continuity errors : sum local = 8.26052e-05, global = 3.49747e-16, cumulative = 2.12959e-15
smoothSolver:  Solving for nuTilda, Initial residual = 0.0120816, Final residual = 5.21699e-05, No Iterations 8
ExecutionTime = 1.74 s  ClockTime = 1 s

Time = 19

smoothSolver:  Solving for Ux, Initial residual = 0.00675965, Final residual = 4.00839e-05, No Iterations 6
smoothSolver:  Solving for Uy, Initial residual = 0.0232759, Final residual = 5.5854e-05, No Iterations 8
GAMG:  Solving for p, Initial residual = 0.0337985, Final residual = 0.000221285, No Iterations 4
time step continuity errors : sum local = 7.1195e-05, global = 2.26529e-16, cumulative = 2.35612e-15
smoothSolver:  Solving for nuTilda, Initial residual = 0.0111523, Final residual = 4.91174e-05, No Iterations 8
ExecutionTime = 1.82 s  ClockTime = 1 s

Time = 20

smoothSolver:  Solving for Ux, Initial residual = 0.00582199, Final residual = 3.99941e-05, No Iterations 6
smoothSolver:  Solving for Uy, Initial residual = 0.0225975, Final residual = 5.46747e-05, No Iterations 8
GAMG:  Solving for p, Initial residual = 0.0295975, Final residual = 0.000122588, No Iterations 4
time step continuity errors : sum local = 3.95507e-05, global = 1.17568e-16, cumulative = 2.47369e-15
smoothSolver:  Solving for nuTilda, Initial residual = 0.0103384, Final residual = 4.63671e-05, No Iterations 8
ExecutionTime = 1.89 s  ClockTime = 1 s

forces wings output:
    sum of forces:
        pressure : (-2.61403e-18 0.517993 -2.29504e-37)
        viscous  : (0.491394 2.76115e-06 2.7483e-39)
        porous   : (0 0 0)
    sum of moments:
        pressure : (-0.0258997 -1.30702e-19 0.108374)
        viscous  : (-1.38058e-07 0.0245697 4.12412e-07)
        porous   : (0 0 0)

Time = 21

smoothSolver:  Solving for Ux, Initial residual = 0.00486519, Final residual = 3.74639e-05, No Iterations 6
smoothSolver:  Solving for Uy, Initial residual = 0.0193164, Final residual = 4.91942e-05, No Iterations 8
GAMG:  Solving for p, Initial residual = 0.0252461, Final residual = 0.000150406, No Iterations 4
time step continuity errors : sum local = 4.85234e-05, global = 1.37228e-16, cumulative = 2.61091e-15
smoothSolver:  Solving for nuTilda, Initial residual = 0.00961965, Final residual = 4.38673e-05, No Iterations 8
ExecutionTime = 1.97 s  ClockTime = 2 s

Time = 22

smoothSolver:  Solving for Ux, Initial residual = 0.00397537, Final residual = 3.30703e-05, No Iterations 6
smoothSolver:  Solving for Uy, Initial residual = 0.0147584, Final residual = 4.06526e-05, No Iterations 8
GAMG:  Solving for p, Initial residual = 0.0219001, Final residual = 0.000180286, No Iterations 4
time step continuity errors : sum local = 5.82398e-05, global = 3.03209e-16, cumulative = 2.91412e-15
smoothSolver:  Solving for nuTilda, Initial residual = 0.00898964, Final residual = 4.158e-05, No Iterations 8
ExecutionTime = 2.05 s  ClockTime = 2 s

Time = 23

smoothSolver:  Solving for Ux, Initial residual = 0.00337224, Final residual = 2.97048e-05, No Iterations 6
smoothSolver:  Solving for Uy, Initial residual = 0.0113524, Final residual = 3.40731e-05, No Iterations 8
GAMG:  Solving for p, Initial residual = 0.0194298, Final residual = 0.000153184, No Iterations 4
time step continuity errors : sum local = 4.95252e-05, global = 5.47641e-16, cumulative = 3.46176e-15
smoothSolver:  Solving for nuTilda, Initial residual = 0.00843725, Final residual = 3.94962e-05, No Iterations 8
ExecutionTime = 2.14 s  ClockTime = 2 s

Time = 24

smoothSolver:  Solving for Ux, Initial residual = 0.00303315, Final residual = 2.97068e-05, No Iterations 6
smoothSolver:  Solving for Uy, Initial residual = 0.00981187, Final residual = 3.18185e-05, No Iterations 8
GAMG:  Solving for p, Initial residual = 0.0167744, Final residual = 8.94372e-05, No Iterations 4
time step continuity errors : sum local = 2.89589e-05, global = -2.93988e-18, cumulative = 3.45882e-15
smoothSolver:  Solving for nuTilda, Initial residual = 0.00795171, Final residual = 3.75825e-05, No Iterations 8
ExecutionTime = 2.22 s  ClockTime = 2 s

Time = 25

smoothSolver:  Solving for Ux, Initial residual = 0.00274638, Final residual = 6.21454e-06, No Iterations 8
smoothSolver:  Solving for Uy, Initial residual = 0.00916078, Final residual = 3.10722e-05, No Iterations 8
GAMG:  Solving for p, Initial residual = 0.0145111, Final residual = 5.15524e-05, No Iterations 4
time step continuity errors : sum local = 1.66951e-05, global = -1.1875e-17, cumulative = 3.44695e-15
smoothSolver:  Solving for nuTilda, Initial residual = 0.00752897, Final residual = 3.58173e-05, No Iterations 8
ExecutionTime = 2.3 s  ClockTime = 2 s

forces wings output:
    sum of forces:
        pressure : (-3.05762e-18 0.454534 -1.08374e-37)
        viscous  : (0.477089 8.07794e-07 1.414e-39)
        porous   : (0 0 0)
    sum of moments:
        pressure : (-0.0227267 -1.52881e-19 0.0583682)
        viscous  : (-4.03897e-08 0.0238544 -5.63471e-07)
        porous   : (0 0 0)

Time = 26

smoothSolver:  Solving for Ux, Initial residual = 0.00249523, Final residual = 5.71961e-06, No Iterations 8
smoothSolver:  Solving for Uy, Initial residual = 0.0086293, Final residual = 2.96695e-05, No Iterations 8
GAMG:  Solving for p, Initial residual = 0.0125799, Final residual = 0.000123266, No Iterations 3
time step continuity errors : sum local = 3.9843e-05, global = 3.84789e-16, cumulative = 3.83174e-15
smoothSolver:  Solving for nuTilda, Initial residual = 0.0071499, Final residual = 3.41685e-05, No Iterations 8
bounding nuTilda, min: -5.95116e-05 max: 0.403648 average: 0.0864103
ExecutionTime = 2.39 s  ClockTime = 2 s

Time = 27

smoothSolver:  Solving for Ux, Initial residual = 0.00229288, Final residual = 5.27626e-06, No Iterations 8
smoothSolver:  Solving for Uy, Initial residual = 0.00781526, Final residual = 2.71792e-05, No Iterations 8
GAMG:  Solving for p, Initial residual = 0.0109472, Final residual = 4.24785e-05, No Iterations 4
time step continuity errors : sum local = 1.38058e-05, global = 2.74849e-16, cumulative = 4.10659e-15
smoothSolver:  Solving for nuTilda, Initial residual = 0.00681128, Final residual = 3.26496e-05, No Iterations 8
ExecutionTime = 2.47 s  ClockTime = 2 s

Time = 28

smoothSolver:  Solving for Ux, Initial residual = 0.00218728, Final residual = 5.15423e-06, No Iterations 8
smoothSolver:  Solving for Uy, Initial residual = 0.00696636, Final residual = 2.36121e-05, No Iterations 8
GAMG:  Solving for p, Initial residual = 0.00948542, Final residual = 3.81041e-05, No Iterations 4
time step continuity errors : sum local = 1.236e-05, global = 3.45471e-16, cumulative = 4.45206e-15
smoothSolver:  Solving for nuTilda, Initial residual = 0.0064999, Final residual = 3.12136e-05, No Iterations 8
ExecutionTime = 2.55 s  ClockTime = 2 s

Time = 29

smoothSolver:  Solving for Ux, Initial residual = 0.00208985, Final residual = 5.14175e-06, No Iterations 8
smoothSolver:  Solving for Uy, Initial residual = 0.00636172, Final residual = 2.18884e-05, No Iterations 8
GAMG:  Solving for p, Initial residual = 0.00837177, Final residual = 4.06762e-05, No Iterations 4
time step continuity errors : sum local = 1.31349e-05, global = 3.40171e-16, cumulative = 4.79223e-15
smoothSolver:  Solving for nuTilda, Initial residual = 0.00621682, Final residual = 2.98943e-05, No Iterations 8
bounding nuTilda, min: -0.000139077 max: 0.403306 average: 0.0835499
ExecutionTime = 2.63 s  ClockTime = 2 s

Time = 30

smoothSolver:  Solving for Ux, Initial residual = 0.00197345, Final residual = 5.06094e-06, No Iterations 8
smoothSolver:  Solving for Uy, Initial residual = 0.00571597, Final residual = 2.05508e-05, No Iterations 8
GAMG:  Solving for p, Initial residual = 0.00724147, Final residual = 3.30189e-05, No Iterations 4
time step continuity errors : sum local = 1.06566e-05, global = 2.85075e-16, cumulative = 5.0773e-15
smoothSolver:  Solving for nuTilda, Initial residual = 0.00594616, Final residual = 2.86281e-05, No Iterations 8
ExecutionTime = 2.71 s  ClockTime = 2 s

forces wings output:
    sum of forces:
        pressure : (-5.26829e-18 0.77464 1.25123e-37)
        viscous  : (0.46351 2.75026e-06 -1.75875e-39)
        porous   : (0 0 0)
    sum of moments:
        pressure : (-0.038732 -2.63414e-19 0.113122)
        viscous  : (-1.37513e-07 0.0231755 -7.31682e-07)
        porous   : (0 0 0)

Time = 31

smoothSolver:  Solving for Ux, Initial residual = 0.00186929, Final residual = 4.85085e-06, No Iterations 8
smoothSolver:  Solving for Uy, Initial residual = 0.00519775, Final residual = 1.90807e-05, No Iterations 8
GAMG:  Solving for p, Initial residual = 0.00631595, Final residual = 2.68103e-05, No Iterations 4
time step continuity errors : sum local = 8.68036e-06, global = 8.29889e-17, cumulative = 5.16029e-15
smoothSolver:  Solving for nuTilda, Initial residual = 0.00570147, Final residual = 2.74789e-05, No Iterations 8
bounding nuTilda, min: -2.42293e-06 max: 0.40316 average: 0.0817627
ExecutionTime = 2.8 s  ClockTime = 2 s

Time = 32

smoothSolver:  Solving for Ux, Initial residual = 0.00176034, Final residual = 4.56318e-06, No Iterations 8
smoothSolver:  Solving for Uy, Initial residual = 0.00488783, Final residual = 1.77798e-05, No Iterations 8
GAMG:  Solving for p, Initial residual = 0.00547237, Final residual = 2.30583e-05, No Iterations 4
time step continuity errors : sum local = 7.44735e-06, global = 8.42093e-18, cumulative = 5.16871e-15
smoothSolver:  Solving for nuTilda, Initial residual = 0.00546369, Final residual = 2.63561e-05, No Iterations 8
ExecutionTime = 2.87 s  ClockTime = 2 s

Time = 33

smoothSolver:  Solving for Ux, Initial residual = 0.00165999, Final residual = 4.31839e-06, No Iterations 8
smoothSolver:  Solving for Uy, Initial residual = 0.00460869, Final residual = 1.66449e-05, No Iterations 8
GAMG:  Solving for p, Initial residual = 0.00475965, Final residual = 2.40184e-05, No Iterations 4
time step continuity errors : sum local = 7.76286e-06, global = 3.38559e-16, cumulative = 5.50727e-15
smoothSolver:  Solving for nuTilda, Initial residual = 0.00525047, Final residual = 2.53554e-05, No Iterations 8
bounding nuTilda, min: -5.27005e-05 max: 0.403074 average: 0.0800616
ExecutionTime = 2.95 s  ClockTime = 3 s

Time = 34

smoothSolver:  Solving for Ux, Initial residual = 0.00158552, Final residual = 4.19257e-06, No Iterations 8
smoothSolver:  Solving for Uy, Initial residual = 0.00419705, Final residual = 1.55256e-05, No Iterations 8
GAMG:  Solving for p, Initial residual = 0.00426971, Final residual = 3.35928e-05, No Iterations 4
time step continuity errors : sum local = 1.08742e-05, global = 8.94048e-17, cumulative = 5.59668e-15
smoothSolver:  Solving for nuTilda, Initial residual = 0.00504034, Final residual = 2.43508e-05, No Iterations 8
ExecutionTime = 3.03 s  ClockTime = 3 s

Time = 35

smoothSolver:  Solving for Ux, Initial residual = 0.0015783, Final residual = 4.21064e-06, No Iterations 8
smoothSolver:  Solving for Uy, Initial residual = 0.00378984, Final residual = 1.48212e-05, No Iterations 8
GAMG:  Solving for p, Initial residual = 0.00379517, Final residual = 1.81693e-05, No Iterations 5
time step continuity errors : sum local = 5.88467e-06, global = -3.60339e-17, cumulative = 5.56064e-15
smoothSolver:  Solving for nuTilda, Initial residual = 0.00485496, Final residual = 2.34699e-05, No Iterations 8
bounding nuTilda, min: -8.95787e-05 max: 0.403009 average: 0.078439
ExecutionTime = 3.12 s  ClockTime = 3 s

forces wings output:
    sum of forces:
        pressure : (-5.42742e-18 0.830137 3.12117e-37)
        viscous  : (0.449967 5.10314e-06 -4.66092e-39)
        porous   : (0 0 0)
    sum of moments:
        pressure : (-0.0415068 -2.71371e-19 0.113372)
        viscous  : (-2.55157e-07 0.0224984 -6.7244e-07)
        porous   : (0 0 0)

Time = 36

smoothSolver:  Solving for Ux, Initial residual = 0.00160598, Final residual = 4.31141e-06, No Iterations 8
smoothSolver:  Solving for Uy, Initial residual = 0.00392404, Final residual = 1.54747e-05, No Iterations 8
GAMG:  Solving for p, Initial residual = 0.00334693, Final residual = 3.18355e-05, No Iterations 4
time step continuity errors : sum local = 1.02909e-05, global = 2.80281e-16, cumulative = 5.84092e-15
smoothSolver:  Solving for nuTilda, Initial residual = 0.00466963, Final residual = 2.25693e-05, No Iterations 8
ExecutionTime = 3.21 s  ClockTime = 3 s

Time = 37

smoothSolver:  Solving for Ux, Initial residual = 0.00159872, Final residual = 4.27981e-06, No Iterations 8
smoothSolver:  Solving for Uy, Initial residual = 0.00405568, Final residual = 1.57774e-05, No Iterations 8
GAMG:  Solving for p, Initial residual = 0.00299189, Final residual = 1.79787e-05, No Iterations 4
time step continuity errors : sum local = 5.82506e-06, global = -1.21387e-17, cumulative = 5.82878e-15
smoothSolver:  Solving for nuTilda, Initial residual = 0.00450585, Final residual = 2.1787e-05, No Iterations 8
bounding nuTilda, min: -0.000120252 max: 0.402937 average: 0.0768887
ExecutionTime = 3.29 s  ClockTime = 3 s

Time = 38

smoothSolver:  Solving for Ux, Initial residual = 0.00153365, Final residual = 4.0976e-06, No Iterations 8
smoothSolver:  Solving for Uy, Initial residual = 0.00389162, Final residual = 1.53613e-05, No Iterations 8
GAMG:  Solving for p, Initial residual = 0.00267491, Final residual = 2.58845e-05, No Iterations 3
time step continuity errors : sum local = 8.37192e-06, global = -7.44036e-18, cumulative = 5.82134e-15
smoothSolver:  Solving for nuTilda, Initial residual = 0.00434046, Final residual = 2.09783e-05, No Iterations 8
ExecutionTime = 3.37 s  ClockTime = 3 s

Time = 39

smoothSolver:  Solving for Ux, Initial residual = 0.00142458, Final residual = 3.78313e-06, No Iterations 8
smoothSolver:  Solving for Uy, Initial residual = 0.00350949, Final residual = 1.43704e-05, No Iterations 8
GAMG:  Solving for p, Initial residual = 0.00241942, Final residual = 1.91898e-05, No Iterations 4
time step continuity errors : sum local = 6.19932e-06, global = 1.90009e-16, cumulative = 6.01135e-15
smoothSolver:  Solving for nuTilda, Initial residual = 0.00419323, Final residual = 2.02759e-05, No Iterations 8
bounding nuTilda, min: -0.000144934 max: 0.402867 average: 0.0754051
ExecutionTime = 3.46 s  ClockTime = 3 s

Time = 40

smoothSolver:  Solving for Ux, Initial residual = 0.00130299, Final residual = 3.44543e-06, No Iterations 8
smoothSolver:  Solving for Uy, Initial residual = 0.00304143, Final residual = 1.30251e-05, No Iterations 8
GAMG:  Solving for p, Initial residual = 0.00215055, Final residual = 2.00347e-05, No Iterations 4
time step continuity errors : sum local = 6.47779e-06, global = 4.15216e-16, cumulative = 6.42657e-15
smoothSolver:  Solving for nuTilda, Initial residual = 0.00404506, Final residual = 1.95497e-05, No Iterations 8
ExecutionTime = 3.54 s  ClockTime = 3 s

forces wings output:
    sum of forces:
        pressure : (-4.95069e-18 0.747412 4.17409e-37)
        viscous  : (0.438073 5.97519e-06 -6.35934e-39)
        porous   : (0 0 0)
    sum of moments:
        pressure : (-0.0373706 -2.47534e-19 0.0827712)
        viscous  : (-2.9876e-07 0.0219037 -1.09911e-06)
        porous   : (0 0 0)

Time = 41

smoothSolver:  Solving for Ux, Initial residual = 0.0012014, Final residual = 3.23241e-06, No Iterations 8
smoothSolver:  Solving for Uy, Initial residual = 0.0026584, Final residual = 1.17525e-05, No Iterations 8
GAMG:  Solving for p, Initial residual = 0.00195514, Final residual = 1.65923e-05, No Iterations 4
time step continuity errors : sum local = 5.37096e-06, global = 1.43558e-16, cumulative = 6.57013e-15
smoothSolver:  Solving for nuTilda, Initial residual = 0.00391117, Final residual = 1.89092e-05, No Iterations 8
bounding nuTilda, min: -0.000164152 max: 0.402821 average: 0.0739833
ExecutionTime = 3.62 s  ClockTime = 3 s

Time = 42

smoothSolver:  Solving for Ux, Initial residual = 0.00113222, Final residual = 3.14257e-06, No Iterations 8
smoothSolver:  Solving for Uy, Initial residual = 0.00248524, Final residual = 1.10234e-05, No Iterations 8
GAMG:  Solving for p, Initial residual = 0.00173948, Final residual = 1.11643e-05, No Iterations 4
time step continuity errors : sum local = 3.61391e-06, global = 1.94615e-16, cumulative = 6.76474e-15
smoothSolver:  Solving for nuTilda, Initial residual = 0.00377818, Final residual = 1.8256e-05, No Iterations 8
ExecutionTime = 3.7 s  ClockTime = 3 s

Time = 43

smoothSolver:  Solving for Ux, Initial residual = 0.00108412, Final residual = 3.07597e-06, No Iterations 8
smoothSolver:  Solving for Uy, Initial residual = 0.00237729, Final residual = 1.05971e-05, No Iterations 8
GAMG:  Solving for p, Initial residual = 0.00155645, Final residual = 1.51199e-05, No Iterations 3
time step continuity errors : sum local = 4.88344e-06, global = 1.41339e-16, cumulative = 6.90608e-15
smoothSolver:  Solving for nuTilda, Initial residual = 0.00365839, Final residual = 1.76704e-05, No Iterations 8
bounding nuTilda, min: -0.000178649 max: 0.402804 average: 0.0726192
ExecutionTime = 3.77 s  ClockTime = 3 s

Time = 44

smoothSolver:  Solving for Ux, Initial residual = 0.00104148, Final residual = 2.97382e-06, No Iterations 8
smoothSolver:  Solving for Uy, Initial residual = 0.0022394, Final residual = 1.01527e-05, No Iterations 8
GAMG:  Solving for p, Initial residual = 0.00139484, Final residual = 6.40836e-06, No Iterations 4
time step continuity errors : sum local = 2.06981e-06, global = 9.0411e-18, cumulative = 6.91512e-15
smoothSolver:  Solving for nuTilda, Initial residual = 0.00353978, Final residual = 1.7085e-05, No Iterations 8
ExecutionTime = 3.85 s  ClockTime = 3 s

Time = 45

smoothSolver:  Solving for Ux, Initial residual = 0.00100152, Final residual = 2.84771e-06, No Iterations 8
smoothSolver:  Solving for Uy, Initial residual = 0.00205538, Final residual = 9.53776e-06, No Iterations 8
GAMG:  Solving for p, Initial residual = 0.00124819, Final residual = 6.94491e-06, No Iterations 4
time step continuity errors : sum local = 2.25244e-06, global = 2.4879e-16, cumulative = 7.16391e-15
smoothSolver:  Solving for nuTilda, Initial residual = 0.00343075, Final residual = 1.65494e-05, No Iterations 8
bounding nuTilda, min: -0.000189113 max: 0.402806 average: 0.0713088
ExecutionTime = 3.93 s  ClockTime = 3 s

forces wings output:
    sum of forces:
        pressure : (-5.10093e-18 0.755141 4.24714e-37)
        viscous  : (0.425459 7.24296e-06 -6.80276e-39)
        porous   : (0 0 0)
    sum of moments:
        pressure : (-0.037757 -2.55046e-19 0.0789347)
        viscous  : (-3.62148e-07 0.021273 -1.57388e-06)
        porous   : (0 0 0)

Time = 46

smoothSolver:  Solving for Ux, Initial residual = 0.000955692, Final residual = 2.71412e-06, No Iterations 8
smoothSolver:  Solving for Uy, Initial residual = 0.00190576, Final residual = 9.00767e-06, No Iterations 8
GAMG:  Solving for p, Initial residual = 0.00113554, Final residual = 7.49169e-06, No Iterations 4
time step continuity errors : sum local = 2.4203e-06, global = 3.33157e-16, cumulative = 7.49707e-15
smoothSolver:  Solving for nuTilda, Initial residual = 0.00332411, Final residual = 1.60224e-05, No Iterations 8
ExecutionTime = 4.01 s  ClockTime = 4 s

Time = 47

smoothSolver:  Solving for Ux, Initial residual = 0.000909629, Final residual = 2.5815e-06, No Iterations 8
smoothSolver:  Solving for Uy, Initial residual = 0.00180856, Final residual = 8.60094e-06, No Iterations 8
GAMG:  Solving for p, Initial residual = 0.00103793, Final residual = 7.12528e-06, No Iterations 4
time step continuity errors : sum local = 2.30385e-06, global = 5.20989e-17, cumulative = 7.54917e-15
smoothSolver:  Solving for nuTilda, Initial residual = 0.00322369, Final residual = 1.55307e-05, No Iterations 8
bounding nuTilda, min: -0.000196245 max: 0.402812 average: 0.0700489
ExecutionTime = 4.09 s  ClockTime = 4 s

Time = 48

smoothSolver:  Solving for Ux, Initial residual = 0.000870199, Final residual = 2.4708e-06, No Iterations 8
smoothSolver:  Solving for Uy, Initial residual = 0.00174223, Final residual = 8.25398e-06, No Iterations 8
GAMG:  Solving for p, Initial residual = 0.000951702, Final residual = 6.21057e-06, No Iterations 4
time step continuity errors : sum local = 2.00556e-06, global = 7.104e-17, cumulative = 7.62021e-15
smoothSolver:  Solving for nuTilda, Initial residual = 0.00312703, Final residual = 1.50521e-05, No Iterations 8
ExecutionTime = 4.18 s  ClockTime = 4 s

Time = 49

smoothSolver:  Solving for Ux, Initial residual = 0.000837478, Final residual = 2.38548e-06, No Iterations 8
smoothSolver:  Solving for Uy, Initial residual = 0.00169406, Final residual = 7.96003e-06, No Iterations 8
GAMG:  Solving for p, Initial residual = 0.000876465, Final residual = 4.60699e-06, No Iterations 4
time step continuity errors : sum local = 1.49082e-06, global = 1.54172e-16, cumulative = 7.77438e-15
smoothSolver:  Solving for nuTilda, Initial residual = 0.00303606, Final residual = 1.45997e-05, No Iterations 8
bounding nuTilda, min: -0.000200581 max: 0.402814 average: 0.0688361
ExecutionTime = 4.26 s  ClockTime = 4 s

Time = 50

smoothSolver:  Solving for Ux, Initial residual = 0.000803996, Final residual = 2.3082e-06, No Iterations 8
smoothSolver:  Solving for Uy, Initial residual = 0.00164153, Final residual = 7.69146e-06, No Iterations 8
GAMG:  Solving for p, Initial residual = 0.000808311, Final residual = 7.35774e-06, No Iterations 3
time step continuity errors : sum local = 2.37542e-06, global = 3.75769e-16, cumulative = 8.15015e-15
smoothSolver:  Solving for nuTilda, Initial residual = 0.00294881, Final residual = 1.41621e-05, No Iterations 8
ExecutionTime = 4.34 s  ClockTime = 4 s

forces wings output:
    sum of forces:
        pressure : (-5.07317e-18 0.765144 4.11627e-37)
        viscous  : (0.414225 8.96512e-06 -6.74957e-39)
        porous   : (0 0 0)
    sum of moments:
        pressure : (-0.0382572 -2.53659e-19 0.0816954)
        viscous  : (-4.48256e-07 0.0207113 -1.83817e-06)
        porous   : (0 0 0)

Time = 51

smoothSolver:  Solving for Ux, Initial residual = 0.000767081, Final residual = 2.21704e-06, No Iterations 8
smoothSolver:  Solving for Uy, Initial residual = 0.00155431, Final residual = 7.37488e-06, No Iterations 8
GAMG:  Solving for p, Initial residual = 0.000744855, Final residual = 3.89118e-06, No Iterations 4
time step continuity errors : sum local = 1.26309e-06, global = 3.88411e-16, cumulative = 8.53856e-15
smoothSolver:  Solving for nuTilda, Initial residual = 0.00286568, Final residual = 1.37452e-05, No Iterations 8
bounding nuTilda, min: -0.000202659 max: 0.402813 average: 0.0676677
ExecutionTime = 4.42 s  ClockTime = 4 s

Time = 52

smoothSolver:  Solving for Ux, Initial residual = 0.000731194, Final residual = 2.12117e-06, No Iterations 8
smoothSolver:  Solving for Uy, Initial residual = 0.00143857, Final residual = 6.98328e-06, No Iterations 8
GAMG:  Solving for p, Initial residual = 0.000692936, Final residual = 3.6539e-06, No Iterations 4
time step continuity errors : sum local = 1.18498e-06, global = 1.92664e-16, cumulative = 8.73122e-15
smoothSolver:  Solving for nuTilda, Initial residual = 0.00278567, Final residual = 1.33432e-05, No Iterations 8
ExecutionTime = 4.5 s  ClockTime = 4 s

Time = 53

smoothSolver:  Solving for Ux, Initial residual = 0.000701426, Final residual = 2.03629e-06, No Iterations 8
smoothSolver:  Solving for Uy, Initial residual = 0.0013255, Final residual = 6.63426e-06, No Iterations 8
GAMG:  Solving for p, Initial residual = 0.000649625, Final residual = 3.44008e-06, No Iterations 4
time step continuity errors : sum local = 1.11123e-06, global = 3.96359e-16, cumulative = 9.12758e-15
smoothSolver:  Solving for nuTilda, Initial residual = 0.0027086, Final residual = 1.29577e-05, No Iterations 8
bounding nuTilda, min: -0.00020296 max: 0.402812 average: 0.0665411
ExecutionTime = 4.59 s  ClockTime = 4 s

Time = 54

smoothSolver:  Solving for Ux, Initial residual = 0.000676858, Final residual = 1.97394e-06, No Iterations 8
smoothSolver:  Solving for Uy, Initial residual = 0.00124663, Final residual = 6.43281e-06, No Iterations 8
GAMG:  Solving for p, Initial residual = 0.000611259, Final residual = 5.94904e-06, No Iterations 3
time step continuity errors : sum local = 1.92031e-06, global = 1.15506e-17, cumulative = 9.13913e-15
smoothSolver:  Solving for nuTilda, Initial residual = 0.00263432, Final residual = 1.2587e-05, No Iterations 8
ExecutionTime = 4.67 s  ClockTime = 4 s

Time = 55

smoothSolver:  Solving for Ux, Initial residual = 0.000654097, Final residual = 1.91168e-06, No Iterations 8
smoothSolver:  Solving for Uy, Initial residual = 0.0011951, Final residual = 6.26209e-06, No Iterations 8
GAMG:  Solving for p, Initial residual = 0.000575231, Final residual = 5.04855e-06, No Iterations 3
time step continuity errors : sum local = 1.63148e-06, global = 1.97187e-16, cumulative = 9.33632e-15
smoothSolver:  Solving for nuTilda, Initial residual = 0.00256263, Final residual = 1.2231e-05, No Iterations 8
bounding nuTilda, min: -0.000201897 max: 0.402813 average: 0.065454
ExecutionTime = 4.75 s  ClockTime = 4 s

forces wings output:
    sum of forces:
        pressure : (-4.96571e-18 0.752619 3.8501e-37)
        viscous  : (0.403238 1.09125e-05 -6.48441e-39)
        porous   : (0 0 0)
    sum of moments:
        pressure : (-0.0376309 -2.48286e-19 0.0764623)
        viscous  : (-5.45625e-07 0.0201619 -2.27122e-06)
        porous   : (0 0 0)

Time = 56

smoothSolver:  Solving for Ux, Initial residual = 0.000631553, Final residual = 1.85351e-06, No Iterations 8
smoothSolver:  Solving for Uy, Initial residual = 0.0011561, Final residual = 6.08981e-06, No Iterations 8
GAMG:  Solving for p, Initial residual = 0.000539077, Final residual = 4.57462e-06, No Iterations 3
time step continuity errors : sum local = 1.47915e-06, global = 2.89891e-16, cumulative = 9.62621e-15
smoothSolver:  Solving for nuTilda, Initial residual = 0.00249353, Final residual = 1.18883e-05, No Iterations 8
ExecutionTime = 4.83 s  ClockTime = 4 s

Time = 57

smoothSolver:  Solving for Ux, Initial residual = 0.000610537, Final residual = 1.79788e-06, No Iterations 8
smoothSolver:  Solving for Uy, Initial residual = 0.00112277, Final residual = 5.93123e-06, No Iterations 8
GAMG:  Solving for p, Initial residual = 0.000502962, Final residual = 4.79437e-06, No Iterations 3
time step continuity errors : sum local = 1.55037e-06, global = 1.23357e-16, cumulative = 9.74957e-15
smoothSolver:  Solving for nuTilda, Initial residual = 0.00242682, Final residual = 1.15585e-05, No Iterations 8
bounding nuTilda, min: -0.00019975 max: 0.402815 average: 0.064404
ExecutionTime = 4.92 s  ClockTime = 4 s

Time = 58

smoothSolver:  Solving for Ux, Initial residual = 0.000591126, Final residual = 1.74298e-06, No Iterations 8
smoothSolver:  Solving for Uy, Initial residual = 0.00109127, Final residual = 5.78471e-06, No Iterations 8
GAMG:  Solving for p, Initial residual = 0.000468913, Final residual = 2.60898e-06, No Iterations 4
time step continuity errors : sum local = 8.46503e-07, global = 4.01494e-16, cumulative = 1.01511e-14
smoothSolver:  Solving for nuTilda, Initial residual = 0.00236262, Final residual = 1.12409e-05, No Iterations 8
ExecutionTime = 4.99 s  ClockTime = 5 s

Time = 59

smoothSolver:  Solving for Ux, Initial residual = 0.000573432, Final residual = 1.6926e-06, No Iterations 8
smoothSolver:  Solving for Uy, Initial residual = 0.00106639, Final residual = 5.6615e-06, No Iterations 8
GAMG:  Solving for p, Initial residual = 0.000436384, Final residual = 2.26396e-06, No Iterations 4
time step continuity errors : sum local = 7.35065e-07, global = 5.72139e-17, cumulative = 1.02083e-14
smoothSolver:  Solving for nuTilda, Initial residual = 0.00230066, Final residual = 1.09348e-05, No Iterations 8
bounding nuTilda, min: -0.000196821 max: 0.402818 average: 0.0633894
ExecutionTime = 5.07 s  ClockTime = 5 s

Time = 60

smoothSolver:  Solving for Ux, Initial residual = 0.000555841, Final residual = 1.6438e-06, No Iterations 8
smoothSolver:  Solving for Uy, Initial residual = 0.00104072, Final residual = 5.54825e-06, No Iterations 8
GAMG:  Solving for p, Initial residual = 0.000404324, Final residual = 3.76956e-06, No Iterations 3
time step continuity errors : sum local = 1.21762e-06, global = 1.47108e-17, cumulative = 1.0223e-14
smoothSolver:  Solving for nuTilda, Initial residual = 0.00224108, Final residual = 1.06397e-05, No Iterations 8
ExecutionTime = 5.15 s  ClockTime = 5 s

forces wings output:
    sum of forces:
        pressure : (-5.04105e-18 0.757946 3.60034e-37)
        viscous  : (0.392821 1.29385e-05 -6.20291e-39)
        porous   : (0 0 0)
    sum of moments:
        pressure : (-0.0378973 -2.52052e-19 0.0738365)
        viscous  : (-6.46926e-07 0.019641 -2.84963e-06)
        porous   : (0 0 0)

Time = 61

smoothSolver:  Solving for Ux, Initial residual = 0.000537866, Final residual = 1.59535e-06, No Iterations 8
smoothSolver:  Solving for Uy, Initial residual = 0.0010119, Final residual = 5.4265e-06, No Iterations 8
GAMG:  Solving for p, Initial residual = 0.000375096, Final residual = 2.61618e-06, No Iterations 3
time step continuity errors : sum local = 8.44382e-07, global = 3.04173e-16, cumulative = 1.05272e-14
smoothSolver:  Solving for nuTilda, Initial residual = 0.00218373, Final residual = 1.03553e-05, No Iterations 8
bounding nuTilda, min: -0.000193397 max: 0.402821 average: 0.0624083
ExecutionTime = 5.24 s  ClockTime = 5 s

Time = 62

smoothSolver:  Solving for Ux, Initial residual = 0.000520005, Final residual = 1.55005e-06, No Iterations 8
smoothSolver:  Solving for Uy, Initial residual = 0.000981133, Final residual = 5.29659e-06, No Iterations 8
GAMG:  Solving for p, Initial residual = 0.00035035, Final residual = 2.05739e-06, No Iterations 3
time step continuity errors : sum local = 6.64672e-07, global = 2.90512e-16, cumulative = 1.08177e-14
smoothSolver:  Solving for nuTilda, Initial residual = 0.00212851, Final residual = 1.00809e-05, No Iterations 8
ExecutionTime = 5.31 s  ClockTime = 5 s

Time = 63

smoothSolver:  Solving for Ux, Initial residual = 0.000502379, Final residual = 1.50754e-06, No Iterations 8
smoothSolver:  Solving for Uy, Initial residual = 0.000950167, Final residual = 5.15869e-06, No Iterations 8
GAMG:  Solving for p, Initial residual = 0.00032822, Final residual = 2.4581e-06, No Iterations 3
time step continuity errors : sum local = 7.96292e-07, global = 5.67342e-17, cumulative = 1.08744e-14
smoothSolver:  Solving for nuTilda, Initial residual = 0.00207525, Final residual = 9.81603e-06, No Iterations 8
bounding nuTilda, min: -0.00018962 max: 0.402824 average: 0.0614589
ExecutionTime = 5.38 s  ClockTime = 5 s

Time = 64

smoothSolver:  Solving for Ux, Initial residual = 0.000485607, Final residual = 1.46688e-06, No Iterations 8
smoothSolver:  Solving for Uy, Initial residual = 0.000922354, Final residual = 5.02298e-06, No Iterations 8
GAMG:  Solving for p, Initial residual = 0.000305733, Final residual = 2.43949e-06, No Iterations 3
time step continuity errors : sum local = 7.90399e-07, global = 6.57793e-17, cumulative = 1.09402e-14
smoothSolver:  Solving for nuTilda, Initial residual = 0.00202393, Final residual = 9.56044e-06, No Iterations 8
ExecutionTime = 5.46 s  ClockTime = 5 s

Time = 65

smoothSolver:  Solving for Ux, Initial residual = 0.000470751, Final residual = 1.43113e-06, No Iterations 8
smoothSolver:  Solving for Uy, Initial residual = 0.000897588, Final residual = 4.90067e-06, No Iterations 8
GAMG:  Solving for p, Initial residual = 0.000283259, Final residual = 1.94053e-06, No Iterations 3
time step continuity errors : sum local = 6.29541e-07, global = -1.5418e-17, cumulative = 1.09248e-14
smoothSolver:  Solving for nuTilda, Initial residual = 0.00197443, Final residual = 9.31368e-06, No Iterations 8
bounding nuTilda, min: -0.000185657 max: 0.402826 average: 0.0605397
ExecutionTime = 5.54 s  ClockTime = 5 s

forces wings output:
    sum of forces:
        pressure : (-5.10625e-18 0.773025 3.24147e-37)
        viscous  : (0.382915 1.59956e-05 -5.70076e-39)
        porous   : (0 0 0)
    sum of moments:
        pressure : (-0.0386512 -2.55312e-19 0.0741383)
        viscous  : (-7.99779e-07 0.0191457 -3.54188e-06)
        porous   : (0 0 0)

Time = 66

smoothSolver:  Solving for Ux, Initial residual = 0.000457813, Final residual = 1.39833e-06, No Iterations 8
smoothSolver:  Solving for Uy, Initial residual = 0.000875611, Final residual = 4.80081e-06, No Iterations 8
GAMG:  Solving for p, Initial residual = 0.000262787, Final residual = 1.98031e-06, No Iterations 3
time step continuity errors : sum local = 6.42133e-07, global = 2.72499e-16, cumulative = 1.11973e-14
smoothSolver:  Solving for nuTilda, Initial residual = 0.00192662, Final residual = 9.07533e-06, No Iterations 8
ExecutionTime = 5.62 s  ClockTime = 5 s

Time = 67

smoothSolver:  Solving for Ux, Initial residual = 0.000446244, Final residual = 1.3679e-06, No Iterations 8
smoothSolver:  Solving for Uy, Initial residual = 0.000856382, Final residual = 4.70885e-06, No Iterations 8
GAMG:  Solving for p, Initial residual = 0.000245824, Final residual = 1.17598e-06, No Iterations 4
time step continuity errors : sum local = 3.82888e-07, global = 1.50175e-16, cumulative = 1.13474e-14
smoothSolver:  Solving for nuTilda, Initial residual = 0.00188045, Final residual = 8.84502e-06, No Iterations 8
bounding nuTilda, min: -0.000181673 max: 0.402827 average: 0.0596493
ExecutionTime = 5.71 s  ClockTime = 5 s

Time = 68

smoothSolver:  Solving for Ux, Initial residual = 0.000436057, Final residual = 1.34092e-06, No Iterations 8
smoothSolver:  Solving for Uy, Initial residual = 0.000840676, Final residual = 4.61267e-06, No Iterations 8
GAMG:  Solving for p, Initial residual = 0.00022928, Final residual = 1.11061e-06, No Iterations 4
time step continuity errors : sum local = 3.60745e-07, global = 4.59283e-16, cumulative = 1.18067e-14
smoothSolver:  Solving for nuTilda, Initial residual = 0.00183584, Final residual = 8.62233e-06, No Iterations 8
ExecutionTime = 5.79 s  ClockTime = 5 s

Time = 69

smoothSolver:  Solving for Ux, Initial residual = 0.00042615, Final residual = 1.31605e-06, No Iterations 8
smoothSolver:  Solving for Uy, Initial residual = 0.000829311, Final residual = 4.53614e-06, No Iterations 8
GAMG:  Solving for p, Initial residual = 0.000212716, Final residual = 1.60654e-06, No Iterations 3
time step continuity errors : sum local = 5.19106e-07, global = 4.06318e-17, cumulative = 1.18474e-14
smoothSolver:  Solving for nuTilda, Initial residual = 0.00179269, Final residual = 8.40689e-06, No Iterations 8
bounding nuTilda, min: -0.000177729 max: 0.402828 average: 0.0587862
ExecutionTime = 5.87 s  ClockTime = 5 s

Time = 70

smoothSolver:  Solving for Ux, Initial residual = 0.000415944, Final residual = 1.28991e-06, No Iterations 8
smoothSolver:  Solving for Uy, Initial residual = 0.00081667, Final residual = 4.45999e-06, No Iterations 8
GAMG:  Solving for p, Initial residual = 0.000198609, Final residual = 1.25648e-06, No Iterations 3
time step continuity errors : sum local = 4.06706e-07, global = 3.19871e-16, cumulative = 1.21672e-14
smoothSolver:  Solving for nuTilda, Initial residual = 0.00175094, Final residual = 8.19834e-06, No Iterations 8
ExecutionTime = 5.95 s  ClockTime = 6 s

forces wings output:
    sum of forces:
        pressure : (-5.13539e-18 0.778467 2.96719e-37)
        viscous  : (0.373503 1.93512e-05 -5.31697e-39)
        porous   : (0 0 0)
    sum of moments:
        pressure : (-0.0389234 -2.5677e-19 0.070983)
        viscous  : (-9.67562e-07 0.0186752 -4.38846e-06)
        porous   : (0 0 0)

Time = 71

smoothSolver:  Solving for Ux, Initial residual = 0.000405939, Final residual = 1.26471e-06, No Iterations 8
smoothSolver:  Solving for Uy, Initial residual = 0.000800379, Final residual = 4.37368e-06, No Iterations 8
GAMG:  Solving for p, Initial residual = 0.000184847, Final residual = 1.71813e-06, No Iterations 3
time step continuity errors : sum local = 5.56175e-07, global = 1.43644e-16, cumulative = 1.23109e-14
smoothSolver:  Solving for nuTilda, Initial residual = 0.00171047, Final residual = 7.99629e-06, No Iterations 8
bounding nuTilda, min: -0.000173904 max: 0.402829 average: 0.0579493
ExecutionTime = 6.03 s  ClockTime = 6 s

Time = 72

smoothSolver:  Solving for Ux, Initial residual = 0.000396814, Final residual = 1.24302e-06, No Iterations 8
smoothSolver:  Solving for Uy, Initial residual = 0.000782335, Final residual = 4.28268e-06, No Iterations 8
GAMG:  Solving for p, Initial residual = 0.000173692, Final residual = 8.98572e-07, No Iterations 4
time step continuity errors : sum local = 2.93611e-07, global = 2.28737e-16, cumulative = 1.25396e-14
smoothSolver:  Solving for nuTilda, Initial residual = 0.00167125, Final residual = 7.80051e-06, No Iterations 8
ExecutionTime = 6.11 s  ClockTime = 6 s

Time = 73

smoothSolver:  Solving for Ux, Initial residual = 0.000388922, Final residual = 1.22568e-06, No Iterations 8
smoothSolver:  Solving for Uy, Initial residual = 0.000765087, Final residual = 4.20299e-06, No Iterations 8
GAMG:  Solving for p, Initial residual = 0.000162921, Final residual = 8.44666e-07, No Iterations 4
time step continuity errors : sum local = 2.75155e-07, global = 7.67527e-17, cumulative = 1.26164e-14
smoothSolver:  Solving for nuTilda, Initial residual = 0.00163322, Final residual = 7.61083e-06, No Iterations 8
bounding nuTilda, min: -0.000170267 max: 0.40283 average: 0.0571374
ExecutionTime = 6.19 s  ClockTime = 6 s

Time = 74

smoothSolver:  Solving for Ux, Initial residual = 0.0003814, Final residual = 1.20809e-06, No Iterations 8
smoothSolver:  Solving for Uy, Initial residual = 0.000750812, Final residual = 4.13418e-06, No Iterations 8
GAMG:  Solving for p, Initial residual = 0.00015353, Final residual = 1.52013e-06, No Iterations 3
time step continuity errors : sum local = 4.91206e-07, global = 3.29224e-16, cumulative = 1.29456e-14
smoothSolver:  Solving for nuTilda, Initial residual = 0.00159634, Final residual = 7.42686e-06, No Iterations 8
ExecutionTime = 6.26 s  ClockTime = 6 s

Time = 75

smoothSolver:  Solving for Ux, Initial residual = 0.000374083, Final residual = 1.18851e-06, No Iterations 8
smoothSolver:  Solving for Uy, Initial residual = 0.000739158, Final residual = 4.07007e-06, No Iterations 8
GAMG:  Solving for p, Initial residual = 0.000143958, Final residual = 7.23572e-07, No Iterations 4
time step continuity errors : sum local = 2.35309e-07, global = 1.00274e-16, cumulative = 1.30459e-14
smoothSolver:  Solving for nuTilda, Initial residual = 0.00156055, Final residual = 7.24847e-06, No Iterations 8
bounding nuTilda, min: -0.00016692 max: 0.40283 average: 0.0563494
ExecutionTime = 6.34 s  ClockTime = 6 s

forces wings output:
    sum of forces:
        pressure : (-5.22662e-18 0.792091 2.7758e-37)
        viscous  : (0.364571 2.37769e-05 -5.06029e-39)
        porous   : (0 0 0)
    sum of moments:
        pressure : (-0.0396045 -2.61331e-19 0.0686602)
        viscous  : (-1.18884e-06 0.0182285 -5.53903e-06)
        porous   : (0 0 0)

Time = 76

smoothSolver:  Solving for Ux, Initial residual = 0.000367851, Final residual = 1.1717e-06, No Iterations 8
smoothSolver:  Solving for Uy, Initial residual = 0.000727255, Final residual = 4.00287e-06, No Iterations 8
GAMG:  Solving for p, Initial residual = 0.000136129, Final residual = 6.91962e-07, No Iterations 4
time step continuity errors : sum local = 2.24724e-07, global = 2.95363e-16, cumulative = 1.33412e-14
smoothSolver:  Solving for nuTilda, Initial residual = 0.00152583, Final residual = 7.07546e-06, No Iterations 8
ExecutionTime = 6.43 s  ClockTime = 6 s

Time = 77

smoothSolver:  Solving for Ux, Initial residual = 0.000362291, Final residual = 1.15591e-06, No Iterations 8
smoothSolver:  Solving for Uy, Initial residual = 0.000715755, Final residual = 3.93458e-06, No Iterations 8
GAMG:  Solving for p, Initial residual = 0.000128607, Final residual = 6.80026e-07, No Iterations 4
time step continuity errors : sum local = 2.20924e-07, global = -8.00403e-17, cumulative = 1.32612e-14
smoothSolver:  Solving for nuTilda, Initial residual = 0.00149212, Final residual = 6.90764e-06, No Iterations 8
bounding nuTilda, min: -0.000163833 max: 0.40283 average: 0.0555842
ExecutionTime = 6.51 s  ClockTime = 6 s

Time = 78

smoothSolver:  Solving for Ux, Initial residual = 0.000357126, Final residual = 1.14047e-06, No Iterations 8
smoothSolver:  Solving for Uy, Initial residual = 0.000704748, Final residual = 3.86551e-06, No Iterations 8
GAMG:  Solving for p, Initial residual = 0.000123254, Final residual = 6.81224e-07, No Iterations 4
time step continuity errors : sum local = 2.21592e-07, global = 3.64348e-16, cumulative = 1.36255e-14
smoothSolver:  Solving for nuTilda, Initial residual = 0.0014594, Final residual = 6.74477e-06, No Iterations 8
ExecutionTime = 6.59 s  ClockTime = 6 s

Time = 79

smoothSolver:  Solving for Ux, Initial residual = 0.000352144, Final residual = 1.12492e-06, No Iterations 8
smoothSolver:  Solving for Uy, Initial residual = 0.000694386, Final residual = 3.79666e-06, No Iterations 8
GAMG:  Solving for p, Initial residual = 0.000117197, Final residual = 6.37457e-07, No Iterations 4
time step continuity errors : sum local = 2.07331e-07, global = -1.19323e-17, cumulative = 1.36136e-14
smoothSolver:  Solving for nuTilda, Initial residual = 0.00142762, Final residual = 6.58671e-06, No Iterations 8
bounding nuTilda, min: -0.000161058 max: 0.40283 average: 0.0548409
ExecutionTime = 6.68 s  ClockTime = 6 s

Time = 80

smoothSolver:  Solving for Ux, Initial residual = 0.000347349, Final residual = 1.10943e-06, No Iterations 8
smoothSolver:  Solving for Uy, Initial residual = 0.000684484, Final residual = 3.72763e-06, No Iterations 8
GAMG:  Solving for p, Initial residual = 0.000113072, Final residual = 6.01824e-07, No Iterations 4
time step continuity errors : sum local = 1.95578e-07, global = 2.59161e-16, cumulative = 1.38728e-14
smoothSolver:  Solving for nuTilda, Initial residual = 0.00139674, Final residual = 6.43323e-06, No Iterations 8
ExecutionTime = 6.76 s  ClockTime = 6 s

forces wings output:
    sum of forces:
        pressure : (-5.30616e-18 0.807145 2.56263e-37)
        viscous  : (0.356096 2.85962e-05 -4.7473e-39)
        porous   : (0 0 0)
    sum of moments:
        pressure : (-0.0403573 -2.65308e-19 0.0666345)
        viscous  : (-1.42981e-06 0.0178048 -6.76065e-06)
        porous   : (0 0 0)

Time = 81

smoothSolver:  Solving for Ux, Initial residual = 0.000342685, Final residual = 1.09426e-06, No Iterations 8
smoothSolver:  Solving for Uy, Initial residual = 0.000674584, Final residual = 3.65769e-06, No Iterations 8
GAMG:  Solving for p, Initial residual = 0.00010783, Final residual = 5.95314e-07, No Iterations 4
time step continuity errors : sum local = 1.93241e-07, global = 3.33572e-16, cumulative = 1.42063e-14
smoothSolver:  Solving for nuTilda, Initial residual = 0.00136673, Final residual = 6.28418e-06, No Iterations 8
bounding nuTilda, min: -0.000158592 max: 0.40283 average: 0.0541187
ExecutionTime = 6.85 s  ClockTime = 6 s

Time = 82

smoothSolver:  Solving for Ux, Initial residual = 0.000338222, Final residual = 1.07974e-06, No Iterations 8
smoothSolver:  Solving for Uy, Initial residual = 0.000665064, Final residual = 3.58738e-06, No Iterations 8
GAMG:  Solving for p, Initial residual = 0.00010468, Final residual = 6.05542e-07, No Iterations 4
time step continuity errors : sum local = 1.9657e-07, global = 1.30272e-16, cumulative = 1.43366e-14
smoothSolver:  Solving for nuTilda, Initial residual = 0.00133755, Final residual = 6.13938e-06, No Iterations 8
ExecutionTime = 6.93 s  ClockTime = 6 s

Time = 83

smoothSolver:  Solving for Ux, Initial residual = 0.000333956, Final residual = 1.06578e-06, No Iterations 8
smoothSolver:  Solving for Uy, Initial residual = 0.000655571, Final residual = 3.51725e-06, No Iterations 8
GAMG:  Solving for p, Initial residual = 9.99904e-05, Final residual = 6.09129e-07, No Iterations 4
time step continuity errors : sum local = 1.9776e-07, global = 2.04381e-16, cumulative = 1.4541e-14
smoothSolver:  Solving for nuTilda, Initial residual = 0.00130917, Final residual = 5.99868e-06, No Iterations 8
bounding nuTilda, min: -0.000156434 max: 0.40283 average: 0.0534166
ExecutionTime = 7.01 s  ClockTime = 7 s

Time = 84

smoothSolver:  Solving for Ux, Initial residual = 0.000329925, Final residual = 1.05226e-06, No Iterations 8
smoothSolver:  Solving for Uy, Initial residual = 0.000646176, Final residual = 3.44758e-06, No Iterations 8
GAMG:  Solving for p, Initial residual = 9.76453e-05, Final residual = 6.25016e-07, No Iterations 4
time step continuity errors : sum local = 2.02979e-07, global = 3.33582e-16, cumulative = 1.48746e-14
smoothSolver:  Solving for nuTilda, Initial residual = 0.00128158, Final residual = 5.86191e-06, No Iterations 8
ExecutionTime = 7.09 s  ClockTime = 7 s

Time = 85

smoothSolver:  Solving for Ux, Initial residual = 0.0003261, Final residual = 1.0391e-06, No Iterations 8
smoothSolver:  Solving for Uy, Initial residual = 0.000636607, Final residual = 3.37856e-06, No Iterations 8
GAMG:  Solving for p, Initial residual = 9.38078e-05, Final residual = 6.33435e-07, No Iterations 4
time step continuity errors : sum local = 2.05634e-07, global = 2.16735e-17, cumulative = 1.48962e-14
smoothSolver:  Solving for nuTilda, Initial residual = 0.00125472, Final residual = 5.72892e-06, No Iterations 8
bounding nuTilda, min: -0.000154575 max: 0.402829 average: 0.0527339
ExecutionTime = 7.17 s  ClockTime = 7 s

forces wings output:
    sum of forces:
        pressure : (-5.36618e-18 0.819969 2.35798e-37)
        viscous  : (0.348128 3.42195e-05 -4.43359e-39)
        porous   : (0 0 0)
    sum of moments:
        pressure : (-0.0409984 -2.68309e-19 0.0636676)
        viscous  : (-1.71097e-06 0.0174064 -8.19149e-06)
        porous   : (0 0 0)

Time = 86

smoothSolver:  Solving for Ux, Initial residual = 0.000322447, Final residual = 1.02635e-06, No Iterations 8
smoothSolver:  Solving for Uy, Initial residual = 0.00062732, Final residual = 3.31041e-06, No Iterations 8
GAMG:  Solving for p, Initial residual = 9.19762e-05, Final residual = 6.34124e-07, No Iterations 4
time step continuity errors : sum local = 2.05804e-07, global = 3.11874e-16, cumulative = 1.52081e-14
smoothSolver:  Solving for nuTilda, Initial residual = 0.00122858, Final residual = 5.59956e-06, No Iterations 8
ExecutionTime = 7.26 s  ClockTime = 7 s

Time = 87

smoothSolver:  Solving for Ux, Initial residual = 0.000318977, Final residual = 1.01388e-06, No Iterations 8
smoothSolver:  Solving for Uy, Initial residual = 0.000618161, Final residual = 3.24382e-06, No Iterations 8
GAMG:  Solving for p, Initial residual = 8.83103e-05, Final residual = 6.28615e-07, No Iterations 4
time step continuity errors : sum local = 2.03924e-07, global = 4.2516e-16, cumulative = 1.56333e-14
smoothSolver:  Solving for nuTilda, Initial residual = 0.00120314, Final residual = 5.47373e-06, No Iterations 8
bounding nuTilda, min: -0.000152995 max: 0.402829 average: 0.0520698
ExecutionTime = 7.34 s  ClockTime = 7 s

Time = 88

smoothSolver:  Solving for Ux, Initial residual = 0.000315642, Final residual = 1.00172e-06, No Iterations 8
smoothSolver:  Solving for Uy, Initial residual = 0.000609433, Final residual = 3.17882e-06, No Iterations 8
GAMG:  Solving for p, Initial residual = 8.6771e-05, Final residual = 6.30074e-07, No Iterations 4
time step continuity errors : sum local = 2.04418e-07, global = 2.79525e-16, cumulative = 1.59128e-14
smoothSolver:  Solving for nuTilda, Initial residual = 0.00117836, Final residual = 5.35127e-06, No Iterations 8
ExecutionTime = 7.43 s  ClockTime = 7 s

Time = 89

smoothSolver:  Solving for Ux, Initial residual = 0.000312426, Final residual = 9.8981e-07, No Iterations 8
smoothSolver:  Solving for Uy, Initial residual = 0.000600845, Final residual = 3.1151e-06, No Iterations 8
GAMG:  Solving for p, Initial residual = 8.37726e-05, Final residual = 6.22803e-07, No Iterations 4
time step continuity errors : sum local = 2.02052e-07, global = 3.28694e-16, cumulative = 1.62415e-14
smoothSolver:  Solving for nuTilda, Initial residual = 0.00115421, Final residual = 5.23206e-06, No Iterations 8
bounding nuTilda, min: -0.000151542 max: 0.402829 average: 0.0514238
ExecutionTime = 7.52 s  ClockTime = 7 s

Time = 90

smoothSolver:  Solving for Ux, Initial residual = 0.000309307, Final residual = 9.78192e-07, No Iterations 8
smoothSolver:  Solving for Uy, Initial residual = 0.000592666, Final residual = 3.05233e-06, No Iterations 8
GAMG:  Solving for p, Initial residual = 8.2927e-05, Final residual = 6.12981e-07, No Iterations 4
time step continuity errors : sum local = 1.98915e-07, global = 8.6446e-17, cumulative = 1.63279e-14
smoothSolver:  Solving for nuTilda, Initial residual = 0.00113069, Final residual = 5.11602e-06, No Iterations 8
ExecutionTime = 7.59 s  ClockTime = 7 s

forces wings output:
    sum of forces:
        pressure : (-5.42974e-18 0.833169 2.19106e-37)
        viscous  : (0.341027 3.98166e-05 -4.17155e-39)
        porous   : (0 0 0)
    sum of moments:
        pressure : (-0.0416584 -2.71487e-19 0.0607425)
        viscous  : (-1.99083e-06 0.0170514 -9.63291e-06)
        porous   : (0 0 0)

Time = 91

smoothSolver:  Solving for Ux, Initial residual = 0.000306256, Final residual = 9.66785e-07, No Iterations 8
smoothSolver:  Solving for Uy, Initial residual = 0.000584516, Final residual = 2.9903e-06, No Iterations 8
GAMG:  Solving for p, Initial residual = 8.05996e-05, Final residual = 5.97952e-07, No Iterations 4
time step continuity errors : sum local = 1.94045e-07, global = 4.86957e-16, cumulative = 1.68149e-14
smoothSolver:  Solving for nuTilda, Initial residual = 0.00110776, Final residual = 5.00305e-06, No Iterations 8
bounding nuTilda, min: -0.000150187 max: 0.402829 average: 0.050795
ExecutionTime = 7.68 s  ClockTime = 7 s

Time = 92

smoothSolver:  Solving for Ux, Initial residual = 0.000303266, Final residual = 9.55528e-07, No Iterations 8
smoothSolver:  Solving for Uy, Initial residual = 0.000576677, Final residual = 2.92883e-06, No Iterations 8
GAMG:  Solving for p, Initial residual = 7.99463e-05, Final residual = 5.87367e-07, No Iterations 4
time step continuity errors : sum local = 1.90639e-07, global = 5.19187e-17, cumulative = 1.68668e-14
smoothSolver:  Solving for nuTilda, Initial residual = 0.00108543, Final residual = 4.89303e-06, No Iterations 8
ExecutionTime = 7.76 s  ClockTime = 7 s

Time = 93

smoothSolver:  Solving for Ux, Initial residual = 0.000300354, Final residual = 9.44331e-07, No Iterations 8
smoothSolver:  Solving for Uy, Initial residual = 0.000568781, Final residual = 2.8683e-06, No Iterations 8
GAMG:  Solving for p, Initial residual = 7.7887e-05, Final residual = 5.75453e-07, No Iterations 4
time step continuity errors : sum local = 1.86757e-07, global = 8.62443e-17, cumulative = 1.69531e-14
smoothSolver:  Solving for nuTilda, Initial residual = 0.00106365, Final residual = 4.78588e-06, No Iterations 8
bounding nuTilda, min: -0.000149012 max: 0.402829 average: 0.0501828
ExecutionTime = 7.85 s  ClockTime = 7 s

Time = 94

smoothSolver:  Solving for Ux, Initial residual = 0.000297527, Final residual = 9.33297e-07, No Iterations 8
smoothSolver:  Solving for Uy, Initial residual = 0.000561208, Final residual = 2.8091e-06, No Iterations 8
GAMG:  Solving for p, Initial residual = 7.73286e-05, Final residual = 5.73579e-07, No Iterations 4
time step continuity errors : sum local = 1.86141e-07, global = 3.44642e-16, cumulative = 1.72977e-14
smoothSolver:  Solving for nuTilda, Initial residual = 0.00104242, Final residual = 4.68148e-06, No Iterations 8
ExecutionTime = 7.94 s  ClockTime = 8 s

Time = 95

smoothSolver:  Solving for Ux, Initial residual = 0.000294798, Final residual = 9.22525e-07, No Iterations 8
smoothSolver:  Solving for Uy, Initial residual = 0.000553553, Final residual = 2.75124e-06, No Iterations 8
GAMG:  Solving for p, Initial residual = 7.55672e-05, Final residual = 5.72586e-07, No Iterations 4
time step continuity errors : sum local = 1.85781e-07, global = -6.45308e-17, cumulative = 1.72332e-14
smoothSolver:  Solving for nuTilda, Initial residual = 0.00102172, Final residual = 4.57976e-06, No Iterations 8
bounding nuTilda, min: -0.00014799 max: 0.402829 average: 0.0495867
ExecutionTime = 8.02 s  ClockTime = 8 s

forces wings output:
    sum of forces:
        pressure : (-5.4947e-18 0.84685 2.03194e-37)
        viscous  : (0.334914 4.57827e-05 -3.9072e-39)
        porous   : (0 0 0)
    sum of moments:
        pressure : (-0.0423425 -2.74735e-19 0.0579969)
        viscous  : (-2.28913e-06 0.0167457 -1.117e-05)
        porous   : (0 0 0)

Time = 96

smoothSolver:  Solving for Ux, Initial residual = 0.000292147, Final residual = 9.12037e-07, No Iterations 8
smoothSolver:  Solving for Uy, Initial residual = 0.000546288, Final residual = 2.69476e-06, No Iterations 8
GAMG:  Solving for p, Initial residual = 7.5161e-05, Final residual = 5.7612e-07, No Iterations 4
time step continuity errors : sum local = 1.86913e-07, global = -9.82337e-18, cumulative = 1.72233e-14
smoothSolver:  Solving for nuTilda, Initial residual = 0.00100153, Final residual = 4.48062e-06, No Iterations 8
ExecutionTime = 8.11 s  ClockTime = 8 s

Time = 97

smoothSolver:  Solving for Ux, Initial residual = 0.000289596, Final residual = 9.01775e-07, No Iterations 8
smoothSolver:  Solving for Uy, Initial residual = 0.000538841, Final residual = 2.6395e-06, No Iterations 8
GAMG:  Solving for p, Initial residual = 7.37947e-05, Final residual = 5.72461e-07, No Iterations 4
time step continuity errors : sum local = 1.8571e-07, global = 3.03294e-16, cumulative = 1.75266e-14
smoothSolver:  Solving for nuTilda, Initial residual = 0.000981823, Final residual = 4.38397e-06, No Iterations 8
bounding nuTilda, min: -0.000147057 max: 0.402829 average: 0.049006
ExecutionTime = 8.2 s  ClockTime = 8 s

Time = 98

smoothSolver:  Solving for Ux, Initial residual = 0.000287083, Final residual = 8.91709e-07, No Iterations 8
smoothSolver:  Solving for Uy, Initial residual = 0.000531742, Final residual = 2.58535e-06, No Iterations 8
GAMG:  Solving for p, Initial residual = 7.35509e-05, Final residual = 5.70201e-07, No Iterations 4
time step continuity errors : sum local = 1.84981e-07, global = 3.12511e-16, cumulative = 1.78392e-14
smoothSolver:  Solving for nuTilda, Initial residual = 0.000962593, Final residual = 4.28974e-06, No Iterations 8
ExecutionTime = 8.28 s  ClockTime = 8 s

Time = 99

smoothSolver:  Solving for Ux, Initial residual = 0.000284629, Final residual = 8.81745e-07, No Iterations 8
smoothSolver:  Solving for Uy, Initial residual = 0.000524474, Final residual = 2.53248e-06, No Iterations 8
GAMG:  Solving for p, Initial residual = 7.25208e-05, Final residual = 5.61686e-07, No Iterations 4
time step continuity errors : sum local = 1.82203e-07, global = 2.19893e-16, cumulative = 1.8059e-14
smoothSolver:  Solving for nuTilda, Initial residual = 0.000943817, Final residual = 4.19785e-06, No Iterations 8
bounding nuTilda, min: -0.00014617 max: 0.402829 average: 0.0484403
ExecutionTime = 8.36 s  ClockTime = 8 s

Time = 100

smoothSolver:  Solving for Ux, Initial residual = 0.000282202, Final residual = 8.71898e-07, No Iterations 8
smoothSolver:  Solving for Uy, Initial residual = 0.000517622, Final residual = 2.48093e-06, No Iterations 8
GAMG:  Solving for p, Initial residual = 7.22672e-05, Final residual = 5.58411e-07, No Iterations 4
time step continuity errors : sum local = 1.8113e-07, global = 7.03688e-17, cumulative = 1.81294e-14
smoothSolver:  Solving for nuTilda, Initial residual = 0.000925486, Final residual = 4.10823e-06, No Iterations 8
ExecutionTime = 8.44 s  ClockTime = 8 s

forces wings output:
    sum of forces:
        pressure : (-5.55302e-18 0.859629 1.88276e-37)
        viscous  : (0.329382 5.12985e-05 -3.65309e-39)
        porous   : (0 0 0)
    sum of moments:
        pressure : (-0.0429815 -2.77651e-19 0.055264)
        viscous  : (-2.56492e-06 0.0164691 -1.26052e-05)
        porous   : (0 0 0)

Time = 101

smoothSolver:  Solving for Ux, Initial residual = 0.000279833, Final residual = 8.62184e-07, No Iterations 8
smoothSolver:  Solving for Uy, Initial residual = 0.000510652, Final residual = 2.43079e-06, No Iterations 8
GAMG:  Solving for p, Initial residual = 7.16909e-05, Final residual = 5.52539e-07, No Iterations 4
time step continuity errors : sum local = 1.79191e-07, global = 2.0998e-16, cumulative = 1.83394e-14
smoothSolver:  Solving for nuTilda, Initial residual = 0.000907578, Final residual = 4.02082e-06, No Iterations 8
bounding nuTilda, min: -0.00014532 max: 0.402829 average: 0.0478891
ExecutionTime = 8.54 s  ClockTime = 8 s

Time = 102

smoothSolver:  Solving for Ux, Initial residual = 0.000277498, Final residual = 8.52649e-07, No Iterations 8
smoothSolver:  Solving for Uy, Initial residual = 0.000504025, Final residual = 2.38204e-06, No Iterations 8
GAMG:  Solving for p, Initial residual = 7.13063e-05, Final residual = 5.53773e-07, No Iterations 4
time step continuity errors : sum local = 1.79567e-07, global = 1.51632e-16, cumulative = 1.8491e-14
smoothSolver:  Solving for nuTilda, Initial residual = 0.000890089, Final residual = 3.93552e-06, No Iterations 8
ExecutionTime = 8.62 s  ClockTime = 8 s

Time = 103

smoothSolver:  Solving for Ux, Initial residual = 0.000275231, Final residual = 8.43255e-07, No Iterations 8
smoothSolver:  Solving for Uy, Initial residual = 0.000497315, Final residual = 2.33446e-06, No Iterations 8
GAMG:  Solving for p, Initial residual = 7.1135e-05, Final residual = 5.50264e-07, No Iterations 4
time step continuity errors : sum local = 1.78398e-07, global = 1.096e-16, cumulative = 1.86006e-14
smoothSolver:  Solving for nuTilda, Initial residual = 0.000872996, Final residual = 3.8523e-06, No Iterations 8
bounding nuTilda, min: -0.000144596 max: 0.402829 average: 0.0473519
ExecutionTime = 8.7 s  ClockTime = 8 s

Time = 104

smoothSolver:  Solving for Ux, Initial residual = 0.000272988, Final residual = 8.33979e-07, No Iterations 8
smoothSolver:  Solving for Uy, Initial residual = 0.000490845, Final residual = 2.28814e-06, No Iterations 8
GAMG:  Solving for p, Initial residual = 7.06165e-05, Final residual = 5.51394e-07, No Iterations 4
time step continuity errors : sum local = 1.78749e-07, global = 3.20342e-16, cumulative = 1.8921e-14
smoothSolver:  Solving for nuTilda, Initial residual = 0.000856295, Final residual = 3.77107e-06, No Iterations 8
ExecutionTime = 8.79 s  ClockTime = 8 s

Time = 105

smoothSolver:  Solving for Ux, Initial residual = 0.000270799, Final residual = 8.24799e-07, No Iterations 8
smoothSolver:  Solving for Uy, Initial residual = 0.000484346, Final residual = 2.24329e-06, No Iterations 8
GAMG:  Solving for p, Initial residual = 7.0665e-05, Final residual = 5.45745e-07, No Iterations 4
time step continuity errors : sum local = 1.7689e-07, global = 3.72902e-16, cumulative = 1.92939e-14
smoothSolver:  Solving for nuTilda, Initial residual = 0.000839965, Final residual = 3.69177e-06, No Iterations 8
bounding nuTilda, min: -0.000144094 max: 0.402829 average: 0.0468283
ExecutionTime = 8.88 s  ClockTime = 8 s

forces wings output:
    sum of forces:
        pressure : (-5.60686e-18 0.871523 1.74693e-37)
        viscous  : (0.324219 5.68327e-05 -3.4193e-39)
        porous   : (0 0 0)
    sum of moments:
        pressure : (-0.0435761 -2.80343e-19 0.0526252)
        viscous  : (-2.84164e-06 0.016211 -1.40487e-05)
        porous   : (0 0 0)

Time = 106

smoothSolver:  Solving for Ux, Initial residual = 0.000268625, Final residual = 8.1569e-07, No Iterations 8
smoothSolver:  Solving for Uy, Initial residual = 0.000478015, Final residual = 2.19961e-06, No Iterations 8
GAMG:  Solving for p, Initial residual = 7.00259e-05, Final residual = 5.45327e-07, No Iterations 4
time step continuity errors : sum local = 1.76736e-07, global = 7.34609e-17, cumulative = 1.93673e-14
smoothSolver:  Solving for nuTilda, Initial residual = 0.000824005, Final residual = 3.61435e-06, No Iterations 8
ExecutionTime = 8.98 s  ClockTime = 9 s

Time = 107

smoothSolver:  Solving for Ux, Initial residual = 0.00026649, Final residual = 8.06661e-07, No Iterations 8
smoothSolver:  Solving for Uy, Initial residual = 0.000471747, Final residual = 2.15734e-06, No Iterations 8
GAMG:  Solving for p, Initial residual = 7.01331e-05, Final residual = 5.39049e-07, No Iterations 4
time step continuity errors : sum local = 1.74666e-07, global = 4.92512e-17, cumulative = 1.94166e-14
smoothSolver:  Solving for nuTilda, Initial residual = 0.000808397, Final residual = 3.53878e-06, No Iterations 8
bounding nuTilda, min: -0.000143946 max: 0.402829 average: 0.0463178
ExecutionTime = 9.07 s  ClockTime = 9 s

Time = 108

smoothSolver:  Solving for Ux, Initial residual = 0.000264367, Final residual = 7.97731e-07, No Iterations 8
smoothSolver:  Solving for Uy, Initial residual = 0.000465644, Final residual = 2.11639e-06, No Iterations 8
GAMG:  Solving for p, Initial residual = 6.94692e-05, Final residual = 5.39718e-07, No Iterations 4
time step continuity errors : sum local = 1.74859e-07, global = 1.32307e-16, cumulative = 1.95489e-14
smoothSolver:  Solving for nuTilda, Initial residual = 0.000793143, Final residual = 3.465e-06, No Iterations 8
ExecutionTime = 9.17 s  ClockTime = 9 s

Time = 109

smoothSolver:  Solving for Ux, Initial residual = 0.00026228, Final residual = 7.88867e-07, No Iterations 8
smoothSolver:  Solving for Uy, Initial residual = 0.000459617, Final residual = 2.07687e-06, No Iterations 8
GAMG:  Solving for p, Initial residual = 6.95048e-05, Final residual = 5.35012e-07, No Iterations 4
time step continuity errors : sum local = 1.73296e-07, global = 2.1144e-16, cumulative = 1.97603e-14
smoothSolver:  Solving for nuTilda, Initial residual = 0.000778221, Final residual = 3.39296e-06, No Iterations 8
bounding nuTilda, min: -0.000144172 max: 0.40283 average: 0.04582
ExecutionTime = 9.26 s  ClockTime = 9 s

Time = 110

smoothSolver:  Solving for Ux, Initial residual = 0.000260217, Final residual = 7.80099e-07, No Iterations 8
smoothSolver:  Solving for Uy, Initial residual = 0.000453766, Final residual = 2.03872e-06, No Iterations 8
GAMG:  Solving for p, Initial residual = 6.896e-05, Final residual = 5.36825e-07, No Iterations 4
time step continuity errors : sum local = 1.73868e-07, global = 2.10159e-16, cumulative = 1.99705e-14
smoothSolver:  Solving for nuTilda, Initial residual = 0.000763635, Final residual = 3.32259e-06, No Iterations 8
ExecutionTime = 9.34 s  ClockTime = 9 s

forces wings output:
    sum of forces:
        pressure : (-5.65593e-18 0.882445 1.63174e-37)
        viscous  : (0.319454 6.16026e-05 -3.22042e-39)
        porous   : (0 0 0)
    sum of moments:
        pressure : (-0.0441223 -2.82797e-19 0.0501957)
        viscous  : (-3.08013e-06 0.0159727 -1.53067e-05)
        porous   : (0 0 0)

Time = 111

smoothSolver:  Solving for Ux, Initial residual = 0.000258192, Final residual = 7.71402e-07, No Iterations 8
smoothSolver:  Solving for Uy, Initial residual = 0.000447982, Final residual = 2.00196e-06, No Iterations 8
GAMG:  Solving for p, Initial residual = 6.88531e-05, Final residual = 5.31911e-07, No Iterations 4
time step continuity errors : sum local = 1.72242e-07, global = -1.91879e-16, cumulative = 1.97786e-14
smoothSolver:  Solving for nuTilda, Initial residual = 0.000749363, Final residual = 3.25385e-06, No Iterations 8
bounding nuTilda, min: -0.000144625 max: 0.40283 average: 0.0453346
ExecutionTime = 9.44 s  ClockTime = 9 s

Time = 112

smoothSolver:  Solving for Ux, Initial residual = 0.000256189, Final residual = 7.62832e-07, No Iterations 8
smoothSolver:  Solving for Uy, Initial residual = 0.000442364, Final residual = 1.96657e-06, No Iterations 8
GAMG:  Solving for p, Initial residual = 6.85222e-05, Final residual = 5.32466e-07, No Iterations 4
time step continuity errors : sum local = 1.72402e-07, global = 1.5093e-16, cumulative = 1.99295e-14
smoothSolver:  Solving for nuTilda, Initial residual = 0.00073541, Final residual = 3.18669e-06, No Iterations 8
ExecutionTime = 9.53 s  ClockTime = 9 s

Time = 113

smoothSolver:  Solving for Ux, Initial residual = 0.000254216, Final residual = 7.54341e-07, No Iterations 8
smoothSolver:  Solving for Uy, Initial residual = 0.000436807, Final residual = 1.93218e-06, No Iterations 8
GAMG:  Solving for p, Initial residual = 6.82337e-05, Final residual = 5.26251e-07, No Iterations 4
time step continuity errors : sum local = 1.70359e-07, global = 1.58729e-16, cumulative = 2.00883e-14
smoothSolver:  Solving for nuTilda, Initial residual = 0.000721758, Final residual = 3.12108e-06, No Iterations 8
bounding nuTilda, min: -0.000145168 max: 0.40283 average: 0.0448611
ExecutionTime = 9.62 s  ClockTime = 9 s

Time = 114

smoothSolver:  Solving for Ux, Initial residual = 0.000252263, Final residual = 7.45949e-07, No Iterations 8
smoothSolver:  Solving for Uy, Initial residual = 0.000431419, Final residual = 1.89888e-06, No Iterations 8
GAMG:  Solving for p, Initial residual = 6.8213e-05, Final residual = 5.25946e-07, No Iterations 4
time step continuity errors : sum local = 1.70241e-07, global = 3.03646e-16, cumulative = 2.03919e-14
smoothSolver:  Solving for nuTilda, Initial residual = 0.00070841, Final residual = 3.05698e-06, No Iterations 8
ExecutionTime = 9.71 s  ClockTime = 9 s

Time = 115

smoothSolver:  Solving for Ux, Initial residual = 0.000250329, Final residual = 7.37609e-07, No Iterations 8
smoothSolver:  Solving for Uy, Initial residual = 0.000426055, Final residual = 1.86659e-06, No Iterations 8
GAMG:  Solving for p, Initial residual = 6.77954e-05, Final residual = 5.20018e-07, No Iterations 4
time step continuity errors : sum local = 1.68293e-07, global = -1.51056e-16, cumulative = 2.02409e-14
smoothSolver:  Solving for nuTilda, Initial residual = 0.000695348, Final residual = 2.99435e-06, No Iterations 8
bounding nuTilda, min: -0.000145723 max: 0.40283 average: 0.0443993
ExecutionTime = 9.8 s  ClockTime = 9 s

forces wings output:
    sum of forces:
        pressure : (-5.69894e-18 0.892166 1.53005e-37)
        viscous  : (0.315192 6.62633e-05 -3.04368e-39)
        porous   : (0 0 0)
    sum of moments:
        pressure : (-0.0446083 -2.84947e-19 0.0479636)
        viscous  : (-3.31317e-06 0.0157596 -1.65388e-05)
        porous   : (0 0 0)

Time = 116

smoothSolver:  Solving for Ux, Initial residual = 0.000248412, Final residual = 7.29349e-07, No Iterations 8
smoothSolver:  Solving for Uy, Initial residual = 0.000420815, Final residual = 1.83535e-06, No Iterations 8
GAMG:  Solving for p, Initial residual = 6.80439e-05, Final residual = 5.20229e-07, No Iterations 4
time step continuity errors : sum local = 1.6834e-07, global = -8.98714e-18, cumulative = 2.02319e-14
[...]
        viscous  : (0.25394 9.53064e-05 -9.02358e-40)
        porous   : (0 0 0)
    sum of moments:
        pressure : (-0.0418588 -2.49092e-19 0.0167936)
        viscous  : (-4.76532e-06 0.012697 -2.4171e-05)
        porous   : (0 0 0)

Time = 4971

smoothSolver:  Solving for Ux, Initial residual = 1.02802e-07, Final residual = 2.24773e-09, No Iterations 4
smoothSolver:  Solving for Uy, Initial residual = 5.43708e-07, Final residual = 2.61292e-09, No Iterations 6
GAMG:  Solving for p, Initial residual = 9.72356e-07, Final residual = 9.72356e-07, No Iterations 0
time step continuity errors : sum local = 3.15266e-07, global = 2.6714e-16, cumulative = 9.58041e-13
smoothSolver:  Solving for nuTilda, Initial residual = 9.68977e-09, Final residual = 9.68977e-09, No Iterations 0
ExecutionTime = 336.47 s  ClockTime = 337 s

Time = 4972

smoothSolver:  Solving for Ux, Initial residual = 9.44443e-08, Final residual = 2.09885e-09, No Iterations 4
smoothSolver:  Solving for Uy, Initial residual = 4.96417e-07, Final residual = 2.45792e-09, No Iterations 6
GAMG:  Solving for p, Initial residual = 1.30868e-06, Final residual = 5.60389e-07, No Iterations 1
time step continuity errors : sum local = 1.81706e-07, global = 2.03463e-16, cumulative = 9.58245e-13
smoothSolver:  Solving for nuTilda, Initial residual = 9.65114e-09, Final residual = 9.65114e-09, No Iterations 0
ExecutionTime = 336.53 s  ClockTime = 337 s

Time = 4973

smoothSolver:  Solving for Ux, Initial residual = 9.90562e-08, Final residual = 2.05743e-09, No Iterations 4
smoothSolver:  Solving for Uy, Initial residual = 5.35753e-07, Final residual = 2.53636e-09, No Iterations 6
GAMG:  Solving for p, Initial residual = 9.75891e-07, Final residual = 9.75891e-07, No Iterations 0
time step continuity errors : sum local = 3.16416e-07, global = 2.95637e-16, cumulative = 9.58541e-13
smoothSolver:  Solving for nuTilda, Initial residual = 9.67362e-09, Final residual = 9.67362e-09, No Iterations 0
ExecutionTime = 336.59 s  ClockTime = 337 s

Time = 4974

smoothSolver:  Solving for Ux, Initial residual = 9.06319e-08, Final residual = 1.89984e-09, No Iterations 4
smoothSolver:  Solving for Uy, Initial residual = 4.8947e-07, Final residual = 2.41207e-09, No Iterations 6
GAMG:  Solving for p, Initial residual = 1.31264e-06, Final residual = 5.61041e-07, No Iterations 1
time step continuity errors : sum local = 1.81912e-07, global = 2.84904e-16, cumulative = 9.58825e-13
smoothSolver:  Solving for nuTilda, Initial residual = 9.65284e-09, Final residual = 9.65284e-09, No Iterations 0
ExecutionTime = 336.66 s  ClockTime = 337 s

Time = 4975

smoothSolver:  Solving for Ux, Initial residual = 1.0005e-07, Final residual = 2.06501e-09, No Iterations 4
smoothSolver:  Solving for Uy, Initial residual = 5.43369e-07, Final residual = 2.6382e-09, No Iterations 6
GAMG:  Solving for p, Initial residual = 9.74633e-07, Final residual = 9.74633e-07, No Iterations 0
time step continuity errors : sum local = 3.16009e-07, global = 2.76544e-16, cumulative = 9.59102e-13
smoothSolver:  Solving for nuTilda, Initial residual = 9.68319e-09, Final residual = 9.68319e-09, No Iterations 0
ExecutionTime = 336.72 s  ClockTime = 337 s

forces wings output:
    sum of forces:
        pressure : (-4.98121e-18 0.837194 7.12594e-39)
        viscous  : (0.25394 9.53058e-05 -8.90203e-40)
        porous   : (0 0 0)
    sum of moments:
        pressure : (-0.0418597 -2.49061e-19 0.0168045)
        viscous  : (-4.76529e-06 0.012697 -2.417e-05)
        porous   : (0 0 0)

Time = 4976

smoothSolver:  Solving for Ux, Initial residual = 9.18292e-08, Final residual = 1.93242e-09, No Iterations 4
smoothSolver:  Solving for Uy, Initial residual = 4.96656e-07, Final residual = 2.4987e-09, No Iterations 6
GAMG:  Solving for p, Initial residual = 1.31473e-06, Final residual = 5.56562e-07, No Iterations 1
time step continuity errors : sum local = 1.80456e-07, global = 3.34481e-16, cumulative = 9.59437e-13
smoothSolver:  Solving for nuTilda, Initial residual = 9.62648e-09, Final residual = 9.62648e-09, No Iterations 0
ExecutionTime = 336.79 s  ClockTime = 337 s

Time = 4977

smoothSolver:  Solving for Ux, Initial residual = 1.04592e-07, Final residual = 2.30876e-09, No Iterations 4
smoothSolver:  Solving for Uy, Initial residual = 5.54777e-07, Final residual = 2.73732e-09, No Iterations 6
GAMG:  Solving for p, Initial residual = 9.8364e-07, Final residual = 9.8364e-07, No Iterations 0
time step continuity errors : sum local = 3.18926e-07, global = 6.37941e-17, cumulative = 9.595e-13
smoothSolver:  Solving for nuTilda, Initial residual = 9.63928e-09, Final residual = 9.63928e-09, No Iterations 0
ExecutionTime = 336.85 s  ClockTime = 337 s

Time = 4978

smoothSolver:  Solving for Ux, Initial residual = 9.62706e-08, Final residual = 2.16762e-09, No Iterations 4
smoothSolver:  Solving for Uy, Initial residual = 5.0737e-07, Final residual = 2.56479e-09, No Iterations 6
GAMG:  Solving for p, Initial residual = 1.32682e-06, Final residual = 5.61515e-07, No Iterations 1
time step continuity errors : sum local = 1.82069e-07, global = 2.40101e-16, cumulative = 9.5974e-13
smoothSolver:  Solving for nuTilda, Initial residual = 9.59672e-09, Final residual = 9.59672e-09, No Iterations 0
ExecutionTime = 336.91 s  ClockTime = 337 s

Time = 4979

smoothSolver:  Solving for Ux, Initial residual = 1.02829e-07, Final residual = 2.22707e-09, No Iterations 4
smoothSolver:  Solving for Uy, Initial residual = 5.49733e-07, Final residual = 2.65092e-09, No Iterations 6
GAMG:  Solving for p, Initial residual = 9.89234e-07, Final residual = 9.89234e-07, No Iterations 0
time step continuity errors : sum local = 3.20738e-07, global = 1.14389e-16, cumulative = 9.59855e-13
smoothSolver:  Solving for nuTilda, Initial residual = 9.63803e-09, Final residual = 9.63803e-09, No Iterations 0
ExecutionTime = 336.97 s  ClockTime = 338 s

Time = 4980

smoothSolver:  Solving for Ux, Initial residual = 9.43675e-08, Final residual = 2.06305e-09, No Iterations 4
smoothSolver:  Solving for Uy, Initial residual = 5.02397e-07, Final residual = 2.51383e-09, No Iterations 6
GAMG:  Solving for p, Initial residual = 1.33045e-06, Final residual = 5.66176e-07, No Iterations 1
time step continuity errors : sum local = 1.8358e-07, global = 4.80874e-16, cumulative = 9.60336e-13
smoothSolver:  Solving for nuTilda, Initial residual = 9.63837e-09, Final residual = 9.63837e-09, No Iterations 0
ExecutionTime = 337.04 s  ClockTime = 338 s

forces wings output:
    sum of forces:
        pressure : (-4.98124e-18 0.837193 6.49786e-39)
        viscous  : (0.25394 9.52969e-05 -8.75828e-40)
        porous   : (0 0 0)
    sum of moments:
        pressure : (-0.0418597 -2.49062e-19 0.0168005)
        viscous  : (-4.76484e-06 0.012697 -2.41766e-05)
        porous   : (0 0 0)

Time = 4981

smoothSolver:  Solving for Ux, Initial residual = 9.95091e-08, Final residual = 2.00303e-09, No Iterations 4
smoothSolver:  Solving for Uy, Initial residual = 5.44688e-07, Final residual = 2.59437e-09, No Iterations 6
GAMG:  Solving for p, Initial residual = 9.87039e-07, Final residual = 9.87039e-07, No Iterations 0
time step continuity errors : sum local = 3.20029e-07, global = 4.04936e-16, cumulative = 9.60741e-13
smoothSolver:  Solving for nuTilda, Initial residual = 9.68843e-09, Final residual = 9.68843e-09, No Iterations 0
ExecutionTime = 337.11 s  ClockTime = 338 s

Time = 4982

smoothSolver:  Solving for Ux, Initial residual = 9.11197e-08, Final residual = 1.85909e-09, No Iterations 4
smoothSolver:  Solving for Uy, Initial residual = 4.97449e-07, Final residual = 2.48528e-09, No Iterations 6
GAMG:  Solving for p, Initial residual = 1.33391e-06, Final residual = 5.62312e-07, No Iterations 1
time step continuity errors : sum local = 1.82321e-07, global = 2.74703e-16, cumulative = 9.61015e-13
smoothSolver:  Solving for nuTilda, Initial residual = 9.67407e-09, Final residual = 9.67407e-09, No Iterations 0
ExecutionTime = 337.17 s  ClockTime = 338 s

Time = 4983

smoothSolver:  Solving for Ux, Initial residual = 1.03582e-07, Final residual = 2.22847e-09, No Iterations 4
smoothSolver:  Solving for Uy, Initial residual = 5.59126e-07, Final residual = 2.78012e-09, No Iterations 6
GAMG:  Solving for p, Initial residual = 9.96165e-07, Final residual = 9.96165e-07, No Iterations 0
time step continuity errors : sum local = 3.22989e-07, global = 5.54515e-17, cumulative = 9.61071e-13
smoothSolver:  Solving for nuTilda, Initial residual = 9.70487e-09, Final residual = 9.70487e-09, No Iterations 0
ExecutionTime = 337.23 s  ClockTime = 338 s

Time = 4984

smoothSolver:  Solving for Ux, Initial residual = 9.53299e-08, Final residual = 2.09958e-09, No Iterations 4
smoothSolver:  Solving for Uy, Initial residual = 5.11421e-07, Final residual = 2.60638e-09, No Iterations 6
GAMG:  Solving for p, Initial residual = 1.34496e-06, Final residual = 5.64784e-07, No Iterations 1
time step continuity errors : sum local = 1.83124e-07, global = -9.2993e-18, cumulative = 9.61061e-13
smoothSolver:  Solving for nuTilda, Initial residual = 9.66039e-09, Final residual = 9.66039e-09, No Iterations 0
ExecutionTime = 337.3 s  ClockTime = 338 s

Time = 4985

smoothSolver:  Solving for Ux, Initial residual = 1.06103e-07, Final residual = 2.36614e-09, No Iterations 4
smoothSolver:  Solving for Uy, Initial residual = 5.64875e-07, Final residual = 2.83108e-09, No Iterations 6
GAMG:  Solving for p, Initial residual = 1.00191e-06, Final residual = 4.26756e-07, No Iterations 1
time step continuity errors : sum local = 1.38375e-07, global = 2.16507e-16, cumulative = 9.61278e-13
smoothSolver:  Solving for nuTilda, Initial residual = 9.63719e-09, Final residual = 9.63719e-09, No Iterations 0
ExecutionTime = 337.36 s  ClockTime = 338 s

forces wings output:
    sum of forces:
        pressure : (-4.98179e-18 0.837181 7.90966e-39)
        viscous  : (0.25394 9.53074e-05 -9.07572e-40)
        porous   : (0 0 0)
    sum of moments:
        pressure : (-0.041859 -2.4909e-19 0.0167943)
        viscous  : (-4.76537e-06 0.012697 -2.41702e-05)
        porous   : (0 0 0)

Time = 4986

smoothSolver:  Solving for Ux, Initial residual = 1.32469e-07, Final residual = 2.82112e-09, No Iterations 4
smoothSolver:  Solving for Uy, Initial residual = 7.13309e-07, Final residual = 3.3989e-09, No Iterations 6
GAMG:  Solving for p, Initial residual = 9.66694e-07, Final residual = 9.66694e-07, No Iterations 0
time step continuity errors : sum local = 3.13432e-07, global = 8.82062e-17, cumulative = 9.61366e-13
smoothSolver:  Solving for nuTilda, Initial residual = 9.65777e-09, Final residual = 9.65777e-09, No Iterations 0
ExecutionTime = 337.43 s  ClockTime = 338 s

Time = 4987

smoothSolver:  Solving for Ux, Initial residual = 1.22307e-07, Final residual = 2.62416e-09, No Iterations 4
smoothSolver:  Solving for Uy, Initial residual = 6.52652e-07, Final residual = 3.22875e-09, No Iterations 6
GAMG:  Solving for p, Initial residual = 1.55561e-06, Final residual = 6.58157e-07, No Iterations 1
time step continuity errors : sum local = 2.13404e-07, global = 4.22643e-16, cumulative = 9.61789e-13
smoothSolver:  Solving for nuTilda, Initial residual = 9.64291e-09, Final residual = 9.64291e-09, No Iterations 0
ExecutionTime = 337.49 s  ClockTime = 338 s

Time = 4988

smoothSolver:  Solving for Ux, Initial residual = 8.65615e-08, Final residual = 1.82802e-09, No Iterations 4
smoothSolver:  Solving for Uy, Initial residual = 4.93034e-07, Final residual = 2.45939e-09, No Iterations 6
GAMG:  Solving for p, Initial residual = 1.11564e-06, Final residual = 4.81583e-07, No Iterations 1
time step continuity errors : sum local = 1.56151e-07, global = 2.63859e-16, cumulative = 9.62053e-13
smoothSolver:  Solving for nuTilda, Initial residual = 9.62722e-09, Final residual = 9.62722e-09, No Iterations 0
ExecutionTime = 337.55 s  ClockTime = 338 s

Time = 4989

smoothSolver:  Solving for Ux, Initial residual = 1.39921e-07, Final residual = 2.83455e-09, No Iterations 4
smoothSolver:  Solving for Uy, Initial residual = 7.5716e-07, Final residual = 3.37647e-09, No Iterations 6
GAMG:  Solving for p, Initial residual = 9.58978e-07, Final residual = 9.58978e-07, No Iterations 0
time step continuity errors : sum local = 3.10933e-07, global = 5.72993e-17, cumulative = 9.6211e-13
smoothSolver:  Solving for nuTilda, Initial residual = 9.64707e-09, Final residual = 9.64707e-09, No Iterations 0
ExecutionTime = 337.62 s  ClockTime = 338 s

Time = 4990

smoothSolver:  Solving for Ux, Initial residual = 1.27654e-07, Final residual = 2.67108e-09, No Iterations 4
smoothSolver:  Solving for Uy, Initial residual = 6.9021e-07, Final residual = 3.1395e-09, No Iterations 6
GAMG:  Solving for p, Initial residual = 1.58614e-06, Final residual = 6.59708e-07, No Iterations 1
time step continuity errors : sum local = 2.13899e-07, global = 3.06764e-16, cumulative = 9.62417e-13
smoothSolver:  Solving for nuTilda, Initial residual = 9.6081e-09, Final residual = 9.6081e-09, No Iterations 0
ExecutionTime = 337.68 s  ClockTime = 338 s

forces wings output:
    sum of forces:
        pressure : (-4.9806e-18 0.837209 5.91296e-39)
        viscous  : (0.25394 9.52993e-05 -8.63323e-40)
        porous   : (0 0 0)
    sum of moments:
        pressure : (-0.0418605 -2.4903e-19 0.0168135)
        viscous  : (-4.76497e-06 0.012697 -2.41744e-05)
        porous   : (0 0 0)

Time = 4991

smoothSolver:  Solving for Ux, Initial residual = 9.58333e-08, Final residual = 2.25456e-09, No Iterations 4
smoothSolver:  Solving for Uy, Initial residual = 5.17689e-07, Final residual = 2.79053e-09, No Iterations 6
GAMG:  Solving for p, Initial residual = 1.18493e-06, Final residual = 5.07903e-07, No Iterations 1
time step continuity errors : sum local = 1.64684e-07, global = 2.38021e-16, cumulative = 9.62655e-13
smoothSolver:  Solving for nuTilda, Initial residual = 9.60901e-09, Final residual = 9.60901e-09, No Iterations 0
ExecutionTime = 337.75 s  ClockTime = 338 s

Time = 4992

smoothSolver:  Solving for Ux, Initial residual = 1.41089e-07, Final residual = 2.94673e-09, No Iterations 4
smoothSolver:  Solving for Uy, Initial residual = 7.6958e-07, Final residual = 3.56307e-09, No Iterations 6
GAMG:  Solving for p, Initial residual = 1.00055e-06, Final residual = 4.22105e-07, No Iterations 1
time step continuity errors : sum local = 1.36868e-07, global = 1.19418e-16, cumulative = 9.62774e-13
smoothSolver:  Solving for nuTilda, Initial residual = 9.62501e-09, Final residual = 9.62501e-09, No Iterations 0
ExecutionTime = 337.81 s  ClockTime = 338 s

Time = 4993

smoothSolver:  Solving for Ux, Initial residual = 1.29229e-07, Final residual = 2.69672e-09, No Iterations 4
smoothSolver:  Solving for Uy, Initial residual = 7.14826e-07, Final residual = 3.42312e-09, No Iterations 6
GAMG:  Solving for p, Initial residual = 1.15676e-06, Final residual = 4.88885e-07, No Iterations 1
time step continuity errors : sum local = 1.58519e-07, global = 2.67852e-16, cumulative = 9.63042e-13
smoothSolver:  Solving for nuTilda, Initial residual = 9.63999e-09, Final residual = 9.63999e-09, No Iterations 0
ExecutionTime = 337.88 s  ClockTime = 338 s

Time = 4994

smoothSolver:  Solving for Ux, Initial residual = 1.05726e-07, Final residual = 2.32187e-09, No Iterations 4
smoothSolver:  Solving for Uy, Initial residual = 5.97121e-07, Final residual = 3.05765e-09, No Iterations 6
GAMG:  Solving for p, Initial residual = 1.11201e-06, Final residual = 4.81007e-07, No Iterations 1
time step continuity errors : sum local = 1.55961e-07, global = 4.36916e-16, cumulative = 9.63479e-13
smoothSolver:  Solving for nuTilda, Initial residual = 9.63884e-09, Final residual = 9.63884e-09, No Iterations 0
ExecutionTime = 337.94 s  ClockTime = 339 s

Time = 4995

smoothSolver:  Solving for Ux, Initial residual = 1.1144e-07, Final residual = 2.47767e-09, No Iterations 4
smoothSolver:  Solving for Uy, Initial residual = 6.18468e-07, Final residual = 3.11162e-09, No Iterations 6
GAMG:  Solving for p, Initial residual = 9.94455e-07, Final residual = 9.94455e-07, No Iterations 0
time step continuity errors : sum local = 3.22435e-07, global = 1.54528e-16, cumulative = 9.63633e-13
smoothSolver:  Solving for nuTilda, Initial residual = 9.662e-09, Final residual = 9.662e-09, No Iterations 0
ExecutionTime = 338 s  ClockTime = 339 s

forces wings output:
    sum of forces:
        pressure : (-4.98191e-18 0.837169 7.86763e-39)
        viscous  : (0.25394 9.53077e-05 -9.06187e-40)
        porous   : (0 0 0)
    sum of moments:
        pressure : (-0.0418585 -2.49095e-19 0.0167876)
        viscous  : (-4.76539e-06 0.012697 -2.41698e-05)
        porous   : (0 0 0)

Time = 4996

smoothSolver:  Solving for Ux, Initial residual = 1.03265e-07, Final residual = 2.34131e-09, No Iterations 4
smoothSolver:  Solving for Uy, Initial residual = 5.67004e-07, Final residual = 2.92241e-09, No Iterations 6
GAMG:  Solving for p, Initial residual = 1.44703e-06, Final residual = 6.15996e-07, No Iterations 1
time step continuity errors : sum local = 1.99729e-07, global = 7.25487e-17, cumulative = 9.63706e-13
smoothSolver:  Solving for nuTilda, Initial residual = 9.63331e-09, Final residual = 9.63331e-09, No Iterations 0
ExecutionTime = 338.07 s  ClockTime = 339 s

Time = 4997

smoothSolver:  Solving for Ux, Initial residual = 9.5537e-08, Final residual = 2.10499e-09, No Iterations 4
smoothSolver:  Solving for Uy, Initial residual = 5.08679e-07, Final residual = 2.61809e-09, No Iterations 6
GAMG:  Solving for p, Initial residual = 1.02567e-06, Final residual = 4.40249e-07, No Iterations 1
time step continuity errors : sum local = 1.42751e-07, global = 1.66205e-16, cumulative = 9.63872e-13
smoothSolver:  Solving for nuTilda, Initial residual = 9.61889e-09, Final residual = 9.61889e-09, No Iterations 0
ExecutionTime = 338.14 s  ClockTime = 339 s

Time = 4998

smoothSolver:  Solving for Ux, Initial residual = 1.3641e-07, Final residual = 2.75862e-09, No Iterations 4
smoothSolver:  Solving for Uy, Initial residual = 7.28802e-07, Final residual = 3.45184e-09, No Iterations 6
GAMG:  Solving for p, Initial residual = 9.47756e-07, Final residual = 9.47756e-07, No Iterations 0
time step continuity errors : sum local = 3.07291e-07, global = 1.54922e-16, cumulative = 9.64027e-13
smoothSolver:  Solving for nuTilda, Initial residual = 9.64963e-09, Final residual = 9.64963e-09, No Iterations 0
ExecutionTime = 338.2 s  ClockTime = 339 s

Time = 4999

smoothSolver:  Solving for Ux, Initial residual = 1.23969e-07, Final residual = 2.5714e-09, No Iterations 4
smoothSolver:  Solving for Uy, Initial residual = 6.66937e-07, Final residual = 3.31853e-09, No Iterations 6
GAMG:  Solving for p, Initial residual = 1.56384e-06, Final residual = 6.56057e-07, No Iterations 1
time step continuity errors : sum local = 2.12724e-07, global = 3.70944e-16, cumulative = 9.64398e-13
smoothSolver:  Solving for nuTilda, Initial residual = 9.62779e-09, Final residual = 9.62779e-09, No Iterations 0
ExecutionTime = 338.26 s  ClockTime = 339 s

Time = 5000

smoothSolver:  Solving for Ux, Initial residual = 8.98498e-08, Final residual = 1.9945e-09, No Iterations 4
smoothSolver:  Solving for Uy, Initial residual = 5.01918e-07, Final residual = 2.62101e-09, No Iterations 6
GAMG:  Solving for p, Initial residual = 1.14644e-06, Final residual = 4.94678e-07, No Iterations 1
time step continuity errors : sum local = 1.60398e-07, global = 2.15558e-16, cumulative = 9.64614e-13
smoothSolver:  Solving for nuTilda, Initial residual = 9.60403e-09, Final residual = 9.60403e-09, No Iterations 0
ExecutionTime = 338.46 s  ClockTime = 339 s

forces wings output:
    sum of forces:
        pressure : (-4.98085e-18 0.83721 5.76255e-39)
        viscous  : (0.25394 9.53039e-05 -8.6027e-40)
        porous   : (0 0 0)
    sum of moments:
        pressure : (-0.0418605 -2.49043e-19 0.0168124)
        viscous  : (-4.7652e-06 0.012697 -2.41718e-05)
        porous   : (0 0 0)

End

