/*---------------------------------------------------------------------------*\
| =========                 |                                                 |
| \\      /  F ield         | OpenFOAM: The Open Source CFD Toolbox           |
|  \\    /   O peration     | Version:  2.3.0                                 |
|   \\  /    A nd           | Web:      www.OpenFOAM.org                      |
|    \\/     M anipulation  |                                                 |
\*---------------------------------------------------------------------------*/
Build  : 2.3.0-f5222ca19ce6
Exec   : simpleFoam -case Runs/first_arc_300_-10/case
Date   : Jan 12 2015
Time   : 00:04:14
Host   : "lordvon-XPS-8300"
PID    : 8704
Case   : Runs/first_arc_300_-10/case
nProcs : 1
sigFpe : Enabling floating point exception trapping (FOAM_SIGFPE).
fileModificationChecking : Monitoring run-time modified files using timeStampMaster
allowSystemOperations : Disallowing user-supplied system call operations

// * * * * * * * * * * * * * * * * * * * * * * * * * * * * * * * * * * * * * //
Create time

Create mesh for time = 0

Reading field p

Reading field U

Reading/calculating face flux field phi

Selecting incompressible transport model Newtonian
Selecting RAS turbulence model SpalartAllmaras
SpalartAllmarasCoeffs
{
    sigmaNut        0.66666;
    kappa           0.41;
    Cb1             0.1355;
    Cb2             0.622;
    Cw2             0.3;
    Cw3             2;
    Cv1             7.1;
    Cv2             5;
}

    Employing Ashford correction
No finite volume options present


SIMPLE: convergence criteria
    field p	 tolerance 1e-12
    field U	 tolerance 1e-12
    field nuTilda	 tolerance 1e-12


Starting time loop

forces wings:
    Not including porosity effects

Time = 1

smoothSolver:  Solving for Ux, Initial residual = 1, Final residual = 0.00539701, No Iterations 6
smoothSolver:  Solving for Uy, Initial residual = 1, Final residual = 0.00802549, No Iterations 4
GAMG:  Solving for p, Initial residual = 1, Final residual = 0.00734365, No Iterations 11
time step continuity errors : sum local = 0.000818457, global = 2.6695e-16, cumulative = 2.6695e-16
smoothSolver:  Solving for nuTilda, Initial residual = 1, Final residual = 0.00385844, No Iterations 4
ExecutionTime = 0.4 s  ClockTime = 1 s

Time = 2

smoothSolver:  Solving for Ux, Initial residual = 0.56255, Final residual = 0.00296052, No Iterations 8
smoothSolver:  Solving for Uy, Initial residual = 0.601634, Final residual = 0.00335127, No Iterations 8
GAMG:  Solving for p, Initial residual = 0.764333, Final residual = 0.0058432, No Iterations 6
time step continuity errors : sum local = 0.0014214, global = -1.13812e-17, cumulative = 2.55569e-16
smoothSolver:  Solving for nuTilda, Initial residual = 0.18541, Final residual = 0.000704797, No Iterations 6
ExecutionTime = 0.49 s  ClockTime = 1 s

Time = 3

smoothSolver:  Solving for Ux, Initial residual = 0.193486, Final residual = 0.000999143, No Iterations 8
smoothSolver:  Solving for Uy, Initial residual = 0.188549, Final residual = 0.00103465, No Iterations 8
GAMG:  Solving for p, Initial residual = 0.58574, Final residual = 0.00463992, No Iterations 9
time step continuity errors : sum local = 0.00155847, global = 9.43145e-17, cumulative = 3.49883e-16
smoothSolver:  Solving for nuTilda, Initial residual = 0.0940745, Final residual = 0.000846326, No Iterations 6
ExecutionTime = 0.59 s  ClockTime = 1 s

Time = 4

smoothSolver:  Solving for Ux, Initial residual = 0.0618577, Final residual = 0.000269036, No Iterations 8
smoothSolver:  Solving for Uy, Initial residual = 0.0572444, Final residual = 0.000297885, No Iterations 8
GAMG:  Solving for p, Initial residual = 0.465466, Final residual = 0.0035483, No Iterations 8
time step continuity errors : sum local = 0.00119036, global = 4.96117e-16, cumulative = 8.46e-16
smoothSolver:  Solving for nuTilda, Initial residual = 0.0709517, Final residual = 0.000208151, No Iterations 8
ExecutionTime = 0.69 s  ClockTime = 1 s

Time = 5

smoothSolver:  Solving for Ux, Initial residual = 0.18864, Final residual = 0.000962798, No Iterations 8
smoothSolver:  Solving for Uy, Initial residual = 0.20222, Final residual = 0.00108703, No Iterations 8
GAMG:  Solving for p, Initial residual = 0.417426, Final residual = 0.00340644, No Iterations 7
time step continuity errors : sum local = 0.0011984, global = 1.95134e-16, cumulative = 1.04113e-15
smoothSolver:  Solving for nuTilda, Initial residual = 0.0583687, Final residual = 0.00019201, No Iterations 8
ExecutionTime = 0.78 s  ClockTime = 1 s

forces wings output:
    sum of forces:
        pressure : (-353.028 1203.94 7.14656e-18)
        viscous  : (0.521135 0.0616134 2.26159e-20)
        porous   : (0 0 0)
    sum of moments:
        pressure : (-60.197 -17.6514 53.101)
        viscous  : (-0.00308067 0.0260568 -0.0482297)
        porous   : (0 0 0)

Time = 6

smoothSolver:  Solving for Ux, Initial residual = 0.156265, Final residual = 0.000761363, No Iterations 8
smoothSolver:  Solving for Uy, Initial residual = 0.176624, Final residual = 0.000938565, No Iterations 8
GAMG:  Solving for p, Initial residual = 0.34216, Final residual = 0.00304981, No Iterations 9
time step continuity errors : sum local = 0.00110604, global = 1.24868e-16, cumulative = 1.166e-15
smoothSolver:  Solving for nuTilda, Initial residual = 0.0486339, Final residual = 0.000168626, No Iterations 8
ExecutionTime = 0.89 s  ClockTime = 1 s

Time = 7

smoothSolver:  Solving for Ux, Initial residual = 0.117204, Final residual = 0.000527214, No Iterations 8
smoothSolver:  Solving for Uy, Initial residual = 0.142394, Final residual = 0.000733668, No Iterations 8
GAMG:  Solving for p, Initial residual = 0.261104, Final residual = 0.00218785, No Iterations 7
time step continuity errors : sum local = 0.000787545, global = -1.04265e-16, cumulative = 1.06174e-15
smoothSolver:  Solving for nuTilda, Initial residual = 0.0408128, Final residual = 0.00014605, No Iterations 8
ExecutionTime = 0.98 s  ClockTime = 1 s

Time = 8

smoothSolver:  Solving for Ux, Initial residual = 0.128308, Final residual = 0.000631978, No Iterations 8
smoothSolver:  Solving for Uy, Initial residual = 0.141961, Final residual = 0.000743389, No Iterations 8
GAMG:  Solving for p, Initial residual = 0.274226, Final residual = 0.00243992, No Iterations 7
time step continuity errors : sum local = 0.000917204, global = -1.2971e-16, cumulative = 9.32028e-16
smoothSolver:  Solving for nuTilda, Initial residual = 0.0346029, Final residual = 0.000126661, No Iterations 8
ExecutionTime = 1.08 s  ClockTime = 1 s

Time = 9

smoothSolver:  Solving for Ux, Initial residual = 0.047707, Final residual = 0.000213323, No Iterations 8
smoothSolver:  Solving for Uy, Initial residual = 0.0364182, Final residual = 0.000184228, No Iterations 8
GAMG:  Solving for p, Initial residual = 0.215983, Final residual = 0.00162542, No Iterations 9
time step continuity errors : sum local = 0.000613565, global = -6.60966e-17, cumulative = 8.65931e-16
smoothSolver:  Solving for nuTilda, Initial residual = 0.0298267, Final residual = 0.000111399, No Iterations 8
ExecutionTime = 1.18 s  ClockTime = 1 s

Time = 10

smoothSolver:  Solving for Ux, Initial residual = 0.0523185, Final residual = 0.000234091, No Iterations 8
smoothSolver:  Solving for Uy, Initial residual = 0.0594536, Final residual = 0.000303737, No Iterations 8
GAMG:  Solving for p, Initial residual = 0.177474, Final residual = 0.00158549, No Iterations 5
time step continuity errors : sum local = 0.000588885, global = 1.25784e-16, cumulative = 9.91715e-16
smoothSolver:  Solving for nuTilda, Initial residual = 0.0262006, Final residual = 9.96029e-05, No Iterations 8
ExecutionTime = 1.27 s  ClockTime = 2 s

forces wings output:
    sum of forces:
        pressure : (-215.694 758.929 3.8914e-18)
        viscous  : (0.48142 0.103589 2.12108e-20)
        porous   : (0 0 0)
    sum of moments:
        pressure : (-37.9464 -10.7847 45.7546)
        viscous  : (-0.00517944 0.024071 -0.0441989)
        porous   : (0 0 0)

Time = 11

smoothSolver:  Solving for Ux, Initial residual = 0.0662121, Final residual = 0.000311191, No Iterations 8
smoothSolver:  Solving for Uy, Initial residual = 0.0804921, Final residual = 0.000412664, No Iterations 8
GAMG:  Solving for p, Initial residual = 0.180344, Final residual = 0.00143532, No Iterations 8
time step continuity errors : sum local = 0.00054448, global = 6.33927e-17, cumulative = 1.05511e-15
smoothSolver:  Solving for nuTilda, Initial residual = 0.0234273, Final residual = 9.00106e-05, No Iterations 8
ExecutionTime = 1.37 s  ClockTime = 2 s

Time = 12

smoothSolver:  Solving for Ux, Initial residual = 0.0283131, Final residual = 0.000103666, No Iterations 8
smoothSolver:  Solving for Uy, Initial residual = 0.0207893, Final residual = 9.20436e-05, No Iterations 8
GAMG:  Solving for p, Initial residual = 0.138816, Final residual = 0.00107655, No Iterations 9
time step continuity errors : sum local = 0.000399472, global = 2.27149e-16, cumulative = 1.28226e-15
smoothSolver:  Solving for nuTilda, Initial residual = 0.0210079, Final residual = 8.14291e-05, No Iterations 8
ExecutionTime = 1.47 s  ClockTime = 2 s

Time = 13

smoothSolver:  Solving for Ux, Initial residual = 0.046562, Final residual = 0.000204019, No Iterations 8
smoothSolver:  Solving for Uy, Initial residual = 0.0540008, Final residual = 0.000266505, No Iterations 8
GAMG:  Solving for p, Initial residual = 0.121694, Final residual = 0.000883356, No Iterations 6
time step continuity errors : sum local = 0.000323044, global = 1.09595e-16, cumulative = 1.39185e-15
smoothSolver:  Solving for nuTilda, Initial residual = 0.0188583, Final residual = 7.37383e-05, No Iterations 8
ExecutionTime = 1.57 s  ClockTime = 2 s

Time = 14

smoothSolver:  Solving for Ux, Initial residual = 0.0398641, Final residual = 0.00017968, No Iterations 8
smoothSolver:  Solving for Uy, Initial residual = 0.0393812, Final residual = 0.000191843, No Iterations 8
GAMG:  Solving for p, Initial residual = 0.126372, Final residual = 0.000975361, No Iterations 7
time step continuity errors : sum local = 0.000363567, global = -2.558e-17, cumulative = 1.36627e-15
smoothSolver:  Solving for nuTilda, Initial residual = 0.0169726, Final residual = 6.72113e-05, No Iterations 8
ExecutionTime = 1.66 s  ClockTime = 2 s

Time = 15

smoothSolver:  Solving for Ux, Initial residual = 0.0197508, Final residual = 7.65263e-05, No Iterations 8
smoothSolver:  Solving for Uy, Initial residual = 0.012501, Final residual = 5.14584e-05, No Iterations 8
GAMG:  Solving for p, Initial residual = 0.0985485, Final residual = 0.000835534, No Iterations 7
time step continuity errors : sum local = 0.000309505, global = 1.76048e-16, cumulative = 1.54232e-15
smoothSolver:  Solving for nuTilda, Initial residual = 0.0153586, Final residual = 6.18901e-05, No Iterations 8
ExecutionTime = 1.76 s  ClockTime = 2 s

forces wings output:
    sum of forces:
        pressure : (-74.7589 276.308 1.17232e-18)
        viscous  : (0.466916 0.0969799 4.24363e-21)
        porous   : (0 0 0)
    sum of moments:
        pressure : (-13.8154 -3.73795 23.423)
        viscous  : (-0.00484899 0.0233458 -0.0422251)
        porous   : (0 0 0)

Time = 16

smoothSolver:  Solving for Ux, Initial residual = 0.0254906, Final residual = 0.00010853, No Iterations 8
smoothSolver:  Solving for Uy, Initial residual = 0.0305698, Final residual = 0.000148072, No Iterations 8
GAMG:  Solving for p, Initial residual = 0.0929068, Final residual = 0.000655319, No Iterations 6
time step continuity errors : sum local = 0.000239979, global = 1.18571e-16, cumulative = 1.66089e-15
smoothSolver:  Solving for nuTilda, Initial residual = 0.0139869, Final residual = 5.75746e-05, No Iterations 8
ExecutionTime = 1.85 s  ClockTime = 2 s

Time = 17

smoothSolver:  Solving for Ux, Initial residual = 0.0194294, Final residual = 7.96959e-05, No Iterations 8
smoothSolver:  Solving for Uy, Initial residual = 0.0228869, Final residual = 0.000110065, No Iterations 8
GAMG:  Solving for p, Initial residual = 0.0896654, Final residual = 0.00077966, No Iterations 7
time step continuity errors : sum local = 0.000290215, global = 4.12264e-17, cumulative = 1.70212e-15
smoothSolver:  Solving for nuTilda, Initial residual = 0.0127761, Final residual = 5.38854e-05, No Iterations 8
ExecutionTime = 1.94 s  ClockTime = 2 s

Time = 18

smoothSolver:  Solving for Ux, Initial residual = 0.0132649, Final residual = 4.57588e-05, No Iterations 8
smoothSolver:  Solving for Uy, Initial residual = 0.0129764, Final residual = 5.91415e-05, No Iterations 8
GAMG:  Solving for p, Initial residual = 0.0704843, Final residual = 0.000566302, No Iterations 6
time step continuity errors : sum local = 0.000206792, global = 1.2833e-16, cumulative = 1.83045e-15
smoothSolver:  Solving for nuTilda, Initial residual = 0.0117137, Final residual = 5.04473e-05, No Iterations 8
ExecutionTime = 2.04 s  ClockTime = 2 s

Time = 19

smoothSolver:  Solving for Ux, Initial residual = 0.018353, Final residual = 7.6408e-05, No Iterations 8
smoothSolver:  Solving for Uy, Initial residual = 0.0192443, Final residual = 9.27651e-05, No Iterations 8
GAMG:  Solving for p, Initial residual = 0.0681716, Final residual = 0.000364275, No Iterations 6
time step continuity errors : sum local = 0.000131808, global = -1.19503e-16, cumulative = 1.71094e-15
smoothSolver:  Solving for nuTilda, Initial residual = 0.0107728, Final residual = 4.72215e-05, No Iterations 8
ExecutionTime = 2.13 s  ClockTime = 2 s

Time = 20

smoothSolver:  Solving for Ux, Initial residual = 0.0135744, Final residual = 5.66735e-05, No Iterations 8
smoothSolver:  Solving for Uy, Initial residual = 0.00989281, Final residual = 4.60534e-05, No Iterations 8
GAMG:  Solving for p, Initial residual = 0.0621625, Final residual = 0.000597042, No Iterations 6
time step continuity errors : sum local = 0.000221113, global = -4.48253e-17, cumulative = 1.66612e-15
smoothSolver:  Solving for nuTilda, Initial residual = 0.00994539, Final residual = 4.4341e-05, No Iterations 8
ExecutionTime = 2.22 s  ClockTime = 3 s

forces wings output:
    sum of forces:
        pressure : (-9.74397 44.978 -1.61469e-19)
        viscous  : (0.455019 0.0838729 -8.3924e-21)
        porous   : (0 0 0)
    sum of moments:
        pressure : (-2.2489 -0.487198 8.16475)
        viscous  : (-0.00419365 0.0227509 -0.0410534)
        porous   : (0 0 0)

Time = 21

smoothSolver:  Solving for Ux, Initial residual = 0.0105464, Final residual = 4.28207e-05, No Iterations 8
smoothSolver:  Solving for Uy, Initial residual = 0.00833469, Final residual = 3.7738e-05, No Iterations 8
GAMG:  Solving for p, Initial residual = 0.0495565, Final residual = 0.00032369, No Iterations 7
time step continuity errors : sum local = 0.000118443, global = -1.98816e-16, cumulative = 1.4673e-15
smoothSolver:  Solving for nuTilda, Initial residual = 0.0092226, Final residual = 4.18285e-05, No Iterations 8
ExecutionTime = 2.32 s  ClockTime = 3 s

Time = 22

smoothSolver:  Solving for Ux, Initial residual = 0.00975051, Final residual = 4.0155e-05, No Iterations 8
smoothSolver:  Solving for Uy, Initial residual = 0.0116395, Final residual = 5.54303e-05, No Iterations 8
GAMG:  Solving for p, Initial residual = 0.0486255, Final residual = 0.00033493, No Iterations 6
time step continuity errors : sum local = 0.000121963, global = -1.11348e-16, cumulative = 1.35595e-15
smoothSolver:  Solving for nuTilda, Initial residual = 0.00859689, Final residual = 3.96199e-05, No Iterations 8
ExecutionTime = 2.41 s  ClockTime = 3 s

Time = 23

smoothSolver:  Solving for Ux, Initial residual = 0.00598793, Final residual = 2.13521e-05, No Iterations 8
smoothSolver:  Solving for Uy, Initial residual = 0.00631494, Final residual = 2.94329e-05, No Iterations 8
GAMG:  Solving for p, Initial residual = 0.0434527, Final residual = 0.000379462, No Iterations 6
time step continuity errors : sum local = 0.000138957, global = 1.2982e-16, cumulative = 1.48577e-15
smoothSolver:  Solving for nuTilda, Initial residual = 0.00806573, Final residual = 3.76097e-05, No Iterations 8
ExecutionTime = 2.51 s  ClockTime = 3 s

Time = 24

smoothSolver:  Solving for Ux, Initial residual = 0.00737101, Final residual = 2.75201e-05, No Iterations 8
smoothSolver:  Solving for Uy, Initial residual = 0.00701286, Final residual = 3.28174e-05, No Iterations 8
GAMG:  Solving for p, Initial residual = 0.0349163, Final residual = 0.000340615, No Iterations 6
time step continuity errors : sum local = 0.000124353, global = 7.90076e-17, cumulative = 1.56478e-15
smoothSolver:  Solving for nuTilda, Initial residual = 0.00760767, Final residual = 3.57327e-05, No Iterations 8
ExecutionTime = 2.61 s  ClockTime = 3 s

Time = 25

smoothSolver:  Solving for Ux, Initial residual = 0.00857295, Final residual = 3.48022e-05, No Iterations 8
smoothSolver:  Solving for Uy, Initial residual = 0.00687994, Final residual = 3.23369e-05, No Iterations 8
GAMG:  Solving for p, Initial residual = 0.032817, Final residual = 0.000163752, No Iterations 6
time step continuity errors : sum local = 5.88529e-05, global = -7.52694e-17, cumulative = 1.48951e-15
smoothSolver:  Solving for nuTilda, Initial residual = 0.00720085, Final residual = 3.39836e-05, No Iterations 8
ExecutionTime = 2.7 s  ClockTime = 3 s

forces wings output:
    sum of forces:
        pressure : (7.34153 -17.8882 -4.37463e-19)
        viscous  : (0.441169 0.074987 -8.62332e-21)
        porous   : (0 0 0)
    sum of moments:
        pressure : (0.894408 0.367077 2.97223)
        viscous  : (-0.00374935 0.0220584 -0.0399241)
        porous   : (0 0 0)

Time = 26

smoothSolver:  Solving for Ux, Initial residual = 0.00722778, Final residual = 2.89503e-05, No Iterations 8
smoothSolver:  Solving for Uy, Initial residual = 0.00350075, Final residual = 1.57229e-05, No Iterations 8
GAMG:  Solving for p, Initial residual = 0.0285305, Final residual = 0.000216008, No Iterations 6
time step continuity errors : sum local = 7.82414e-05, global = -3.33842e-17, cumulative = 1.45613e-15
smoothSolver:  Solving for nuTilda, Initial residual = 0.00683236, Final residual = 3.23386e-05, No Iterations 8
ExecutionTime = 2.8 s  ClockTime = 3 s

Time = 27

smoothSolver:  Solving for Ux, Initial residual = 0.00642147, Final residual = 2.54857e-05, No Iterations 8
smoothSolver:  Solving for Uy, Initial residual = 0.00474809, Final residual = 2.18238e-05, No Iterations 8
GAMG:  Solving for p, Initial residual = 0.0235336, Final residual = 0.00020765, No Iterations 6
time step continuity errors : sum local = 7.50414e-05, global = 1.7039e-17, cumulative = 1.47317e-15
smoothSolver:  Solving for nuTilda, Initial residual = 0.00650083, Final residual = 3.08728e-05, No Iterations 8
ExecutionTime = 2.89 s  ClockTime = 3 s

Time = 28

smoothSolver:  Solving for Ux, Initial residual = 0.00534443, Final residual = 1.99268e-05, No Iterations 8
smoothSolver:  Solving for Uy, Initial residual = 0.00486723, Final residual = 2.24901e-05, No Iterations 8
GAMG:  Solving for p, Initial residual = 0.0219655, Final residual = 0.000148822, No Iterations 6
time step continuity errors : sum local = 5.37206e-05, global = 1.829e-16, cumulative = 1.65607e-15
smoothSolver:  Solving for nuTilda, Initial residual = 0.00622405, Final residual = 2.95293e-05, No Iterations 8
ExecutionTime = 2.98 s  ClockTime = 3 s

Time = 29

smoothSolver:  Solving for Ux, Initial residual = 0.004832, Final residual = 1.6985e-05, No Iterations 8
smoothSolver:  Solving for Uy, Initial residual = 0.00373013, Final residual = 1.68208e-05, No Iterations 8
GAMG:  Solving for p, Initial residual = 0.0202162, Final residual = 0.000117236, No Iterations 6
time step continuity errors : sum local = 4.22803e-05, global = -4.06105e-17, cumulative = 1.61546e-15
smoothSolver:  Solving for nuTilda, Initial residual = 0.005992, Final residual = 2.83098e-05, No Iterations 8
ExecutionTime = 3.07 s  ClockTime = 3 s

Time = 30

smoothSolver:  Solving for Ux, Initial residual = 0.00561824, Final residual = 2.09557e-05, No Iterations 8
smoothSolver:  Solving for Uy, Initial residual = 0.0038401, Final residual = 1.75431e-05, No Iterations 8
GAMG:  Solving for p, Initial residual = 0.0186099, Final residual = 0.000125744, No Iterations 6
time step continuity errors : sum local = 4.55102e-05, global = -4.80141e-16, cumulative = 1.13532e-15
smoothSolver:  Solving for nuTilda, Initial residual = 0.00575942, Final residual = 2.70804e-05, No Iterations 8
ExecutionTime = 3.16 s  ClockTime = 3 s

forces wings output:
    sum of forces:
        pressure : (7.22195 -17.7376 -3.68483e-19)
        viscous  : (0.426268 0.0699121 -6.6135e-21)
        porous   : (0 0 0)
    sum of moments:
        pressure : (0.886882 0.361097 2.8435)
        viscous  : (-0.00349561 0.0213134 -0.0386985)
        porous   : (0 0 0)

Time = 31

smoothSolver:  Solving for Ux, Initial residual = 0.00575666, Final residual = 2.2182e-05, No Iterations 8
smoothSolver:  Solving for Uy, Initial residual = 0.00298773, Final residual = 1.37365e-05, No Iterations 8
GAMG:  Solving for p, Initial residual = 0.0167347, Final residual = 0.000124072, No Iterations 5
time step continuity errors : sum local = 4.46136e-05, global = 5.07624e-17, cumulative = 1.18608e-15
smoothSolver:  Solving for nuTilda, Initial residual = 0.00554296, Final residual = 2.59653e-05, No Iterations 8
ExecutionTime = 3.25 s  ClockTime = 4 s

Time = 32

smoothSolver:  Solving for Ux, Initial residual = 0.00542488, Final residual = 2.11662e-05, No Iterations 8
smoothSolver:  Solving for Uy, Initial residual = 0.00253296, Final residual = 1.15498e-05, No Iterations 8
GAMG:  Solving for p, Initial residual = 0.0150194, Final residual = 9.49296e-05, No Iterations 5
time step continuity errors : sum local = 3.43851e-05, global = 8.12384e-17, cumulative = 1.26732e-15
smoothSolver:  Solving for nuTilda, Initial residual = 0.0053315, Final residual = 2.48585e-05, No Iterations 8
ExecutionTime = 3.34 s  ClockTime = 4 s

Time = 33

smoothSolver:  Solving for Ux, Initial residual = 0.00480854, Final residual = 1.84712e-05, No Iterations 8
smoothSolver:  Solving for Uy, Initial residual = 0.00284359, Final residual = 1.32683e-05, No Iterations 8
GAMG:  Solving for p, Initial residual = 0.0140266, Final residual = 0.000106116, No Iterations 5
time step continuity errors : sum local = 3.81073e-05, global = -8.56585e-17, cumulative = 1.18166e-15
smoothSolver:  Solving for nuTilda, Initial residual = 0.00514917, Final residual = 2.38903e-05, No Iterations 8
ExecutionTime = 3.43 s  ClockTime = 4 s

Time = 34

smoothSolver:  Solving for Ux, Initial residual = 0.00432446, Final residual = 1.61626e-05, No Iterations 8
smoothSolver:  Solving for Uy, Initial residual = 0.00260017, Final residual = 1.21476e-05, No Iterations 8
GAMG:  Solving for p, Initial residual = 0.0124289, Final residual = 9.51221e-05, No Iterations 5
time step continuity errors : sum local = 3.39869e-05, global = 1.02266e-16, cumulative = 1.28393e-15
smoothSolver:  Solving for nuTilda, Initial residual = 0.00496006, Final residual = 2.29164e-05, No Iterations 8
ExecutionTime = 3.52 s  ClockTime = 4 s

Time = 35

smoothSolver:  Solving for Ux, Initial residual = 0.00434109, Final residual = 1.6137e-05, No Iterations 8
smoothSolver:  Solving for Uy, Initial residual = 0.00252574, Final residual = 1.16425e-05, No Iterations 8
GAMG:  Solving for p, Initial residual = 0.011593, Final residual = 8.17687e-05, No Iterations 5
time step continuity errors : sum local = 2.95755e-05, global = 3.30113e-16, cumulative = 1.61404e-15
smoothSolver:  Solving for nuTilda, Initial residual = 0.00479283, Final residual = 2.20871e-05, No Iterations 8
ExecutionTime = 3.6 s  ClockTime = 4 s

forces wings output:
    sum of forces:
        pressure : (5.17098 -10.2415 -3.15453e-19)
        viscous  : (0.410407 0.0664359 -6.73778e-21)
        porous   : (0 0 0)
    sum of moments:
        pressure : (0.512076 0.258549 3.43806)
        viscous  : (-0.0033218 0.0205204 -0.0373379)
        porous   : (0 0 0)

Time = 36

smoothSolver:  Solving for Ux, Initial residual = 0.00454078, Final residual = 1.72157e-05, No Iterations 8
smoothSolver:  Solving for Uy, Initial residual = 0.00225805, Final residual = 1.0556e-05, No Iterations 8
GAMG:  Solving for p, Initial residual = 0.0110774, Final residual = 6.67189e-05, No Iterations 5
time step continuity errors : sum local = 2.38543e-05, global = 8.47465e-18, cumulative = 1.62251e-15
smoothSolver:  Solving for nuTilda, Initial residual = 0.00461598, Final residual = 2.12277e-05, No Iterations 8
ExecutionTime = 3.7 s  ClockTime = 4 s

Time = 37

smoothSolver:  Solving for Ux, Initial residual = 0.00456468, Final residual = 1.76364e-05, No Iterations 8
smoothSolver:  Solving for Uy, Initial residual = 0.00185014, Final residual = 8.74194e-06, No Iterations 8
GAMG:  Solving for p, Initial residual = 0.00973918, Final residual = 6.43303e-05, No Iterations 5
time step continuity errors : sum local = 2.30032e-05, global = -3.48757e-16, cumulative = 1.27376e-15
smoothSolver:  Solving for nuTilda, Initial residual = 0.00444881, Final residual = 2.04917e-05, No Iterations 8
ExecutionTime = 3.79 s  ClockTime = 4 s

Time = 38

smoothSolver:  Solving for Ux, Initial residual = 0.00434461, Final residual = 1.68638e-05, No Iterations 8
smoothSolver:  Solving for Uy, Initial residual = 0.00187372, Final residual = 8.72819e-06, No Iterations 8
GAMG:  Solving for p, Initial residual = 0.00900373, Final residual = 7.26953e-05, No Iterations 4
time step continuity errors : sum local = 2.5876e-05, global = 9.36736e-17, cumulative = 1.36743e-15
smoothSolver:  Solving for nuTilda, Initial residual = 0.00428126, Final residual = 1.97372e-05, No Iterations 8
ExecutionTime = 3.87 s  ClockTime = 4 s

Time = 39

smoothSolver:  Solving for Ux, Initial residual = 0.00402504, Final residual = 1.5505e-05, No Iterations 8
smoothSolver:  Solving for Uy, Initial residual = 0.00189736, Final residual = 8.98062e-06, No Iterations 8
GAMG:  Solving for p, Initial residual = 0.00873085, Final residual = 4.2132e-05, No Iterations 5
time step continuity errors : sum local = 1.50694e-05, global = -2.7507e-16, cumulative = 1.09236e-15
smoothSolver:  Solving for nuTilda, Initial residual = 0.00412576, Final residual = 1.90869e-05, No Iterations 8
ExecutionTime = 3.96 s  ClockTime = 4 s

Time = 40

smoothSolver:  Solving for Ux, Initial residual = 0.00381225, Final residual = 1.4564e-05, No Iterations 8
smoothSolver:  Solving for Uy, Initial residual = 0.00185322, Final residual = 8.86854e-06, No Iterations 8
GAMG:  Solving for p, Initial residual = 0.00792324, Final residual = 7.28901e-05, No Iterations 4
time step continuity errors : sum local = 2.59379e-05, global = 4.15011e-17, cumulative = 1.13386e-15
smoothSolver:  Solving for nuTilda, Initial residual = 0.0039749, Final residual = 1.84235e-05, No Iterations 8
ExecutionTime = 4.04 s  ClockTime = 4 s

forces wings output:
    sum of forces:
        pressure : (4.18267 -6.55707 -2.90106e-19)
        viscous  : (0.396088 0.0635833 -7.47153e-21)
        porous   : (0 0 0)
    sum of moments:
        pressure : (0.327854 0.209133 3.76576)
        viscous  : (-0.00317917 0.0198044 -0.0361186)
        porous   : (0 0 0)

Time = 41

smoothSolver:  Solving for Ux, Initial residual = 0.00376085, Final residual = 1.4389e-05, No Iterations 8
smoothSolver:  Solving for Uy, Initial residual = 0.00178314, Final residual = 8.52966e-06, No Iterations 8
GAMG:  Solving for p, Initial residual = 0.00726758, Final residual = 5.47743e-05, No Iterations 4
time step continuity errors : sum local = 1.95624e-05, global = 2.86932e-17, cumulative = 1.16255e-15
smoothSolver:  Solving for nuTilda, Initial residual = 0.00383963, Final residual = 1.78251e-05, No Iterations 8
ExecutionTime = 4.13 s  ClockTime = 4 s

Time = 42

smoothSolver:  Solving for Ux, Initial residual = 0.00376189, Final residual = 1.45772e-05, No Iterations 8
smoothSolver:  Solving for Uy, Initial residual = 0.00156371, Final residual = 7.61832e-06, No Iterations 8
GAMG:  Solving for p, Initial residual = 0.006911, Final residual = 4.58729e-05, No Iterations 5
time step continuity errors : sum local = 1.63783e-05, global = -2.58346e-16, cumulative = 9.04207e-16
smoothSolver:  Solving for nuTilda, Initial residual = 0.00370595, Final residual = 1.72155e-05, No Iterations 8
ExecutionTime = 4.22 s  ClockTime = 5 s

Time = 43

smoothSolver:  Solving for Ux, Initial residual = 0.00370948, Final residual = 1.45438e-05, No Iterations 8
smoothSolver:  Solving for Uy, Initial residual = 0.00144083, Final residual = 7.11191e-06, No Iterations 8
GAMG:  Solving for p, Initial residual = 0.00634043, Final residual = 3.14665e-05, No Iterations 5
time step continuity errors : sum local = 1.113e-05, global = -9.83989e-17, cumulative = 8.05809e-16
smoothSolver:  Solving for nuTilda, Initial residual = 0.00358257, Final residual = 1.66551e-05, No Iterations 8
ExecutionTime = 4.31 s  ClockTime = 5 s

Time = 44

smoothSolver:  Solving for Ux, Initial residual = 0.00359845, Final residual = 1.41506e-05, No Iterations 8
smoothSolver:  Solving for Uy, Initial residual = 0.00145219, Final residual = 7.08494e-06, No Iterations 8
GAMG:  Solving for p, Initial residual = 0.00595992, Final residual = 5.48453e-05, No Iterations 4
time step continuity errors : sum local = 1.94828e-05, global = 2.3193e-18, cumulative = 8.08128e-16
smoothSolver:  Solving for nuTilda, Initial residual = 0.00346156, Final residual = 1.60978e-05, No Iterations 8
ExecutionTime = 4.39 s  ClockTime = 5 s

Time = 45

smoothSolver:  Solving for Ux, Initial residual = 0.00347666, Final residual = 1.36079e-05, No Iterations 8
smoothSolver:  Solving for Uy, Initial residual = 0.00148482, Final residual = 7.19867e-06, No Iterations 8
GAMG:  Solving for p, Initial residual = 0.00576852, Final residual = 5.53932e-05, No Iterations 4
time step continuity errors : sum local = 1.96525e-05, global = 2.38704e-16, cumulative = 1.04683e-15
smoothSolver:  Solving for nuTilda, Initial residual = 0.00334867, Final residual = 1.55794e-05, No Iterations 8
ExecutionTime = 4.48 s  ClockTime = 5 s

forces wings output:
    sum of forces:
        pressure : (4.20431 -6.56117 -2.97541e-19)
        viscous  : (0.38135 0.0607434 -8.46189e-21)
        porous   : (0 0 0)
    sum of moments:
        pressure : (0.328058 0.210215 3.80226)
        viscous  : (-0.00303717 0.0190675 -0.0348373)
        porous   : (0 0 0)

Time = 46

smoothSolver:  Solving for Ux, Initial residual = 0.00339459, Final residual = 1.32194e-05, No Iterations 8
smoothSolver:  Solving for Uy, Initial residual = 0.00150147, Final residual = 7.28716e-06, No Iterations 8
GAMG:  Solving for p, Initial residual = 0.00544728, Final residual = 4.40632e-05, No Iterations 4
time step continuity errors : sum local = 1.55735e-05, global = 2.15887e-16, cumulative = 1.26272e-15
smoothSolver:  Solving for nuTilda, Initial residual = 0.00324383, Final residual = 1.50759e-05, No Iterations 8
ExecutionTime = 4.57 s  ClockTime = 5 s

Time = 47

smoothSolver:  Solving for Ux, Initial residual = 0.00334294, Final residual = 1.30103e-05, No Iterations 8
smoothSolver:  Solving for Uy, Initial residual = 0.00146267, Final residual = 7.11734e-06, No Iterations 8
GAMG:  Solving for p, Initial residual = 0.00519242, Final residual = 3.68921e-05, No Iterations 4
time step continuity errors : sum local = 1.2979e-05, global = -7.84054e-17, cumulative = 1.18431e-15
smoothSolver:  Solving for nuTilda, Initial residual = 0.00314783, Final residual = 1.46104e-05, No Iterations 8
ExecutionTime = 4.65 s  ClockTime = 5 s

Time = 48

smoothSolver:  Solving for Ux, Initial residual = 0.00329569, Final residual = 1.28878e-05, No Iterations 8
smoothSolver:  Solving for Uy, Initial residual = 0.00139228, Final residual = 6.82196e-06, No Iterations 8
GAMG:  Solving for p, Initial residual = 0.00499377, Final residual = 3.09393e-05, No Iterations 4
time step continuity errors : sum local = 1.09554e-05, global = 5.08129e-17, cumulative = 1.23513e-15
smoothSolver:  Solving for nuTilda, Initial residual = 0.00305453, Final residual = 1.41602e-05, No Iterations 8
ExecutionTime = 4.74 s  ClockTime = 5 s

Time = 49

smoothSolver:  Solving for Ux, Initial residual = 0.00322688, Final residual = 1.26998e-05, No Iterations 8
smoothSolver:  Solving for Uy, Initial residual = 0.00134285, Final residual = 6.62088e-06, No Iterations 8
GAMG:  Solving for p, Initial residual = 0.00478461, Final residual = 2.98988e-05, No Iterations 4
time step continuity errors : sum local = 1.05681e-05, global = 1.51424e-16, cumulative = 1.38655e-15
smoothSolver:  Solving for nuTilda, Initial residual = 0.00296723, Final residual = 1.37375e-05, No Iterations 8
ExecutionTime = 4.82 s  ClockTime = 5 s

Time = 50

smoothSolver:  Solving for Ux, Initial residual = 0.00314256, Final residual = 1.24409e-05, No Iterations 8
smoothSolver:  Solving for Uy, Initial residual = 0.00132705, Final residual = 6.52959e-06, No Iterations 8
GAMG:  Solving for p, Initial residual = 0.00462223, Final residual = 2.69745e-05, No Iterations 4
time step continuity errors : sum local = 9.54777e-06, global = 3.19253e-16, cumulative = 1.7058e-15
smoothSolver:  Solving for nuTilda, Initial residual = 0.00288417, Final residual = 1.33277e-05, No Iterations 8
ExecutionTime = 4.91 s  ClockTime = 5 s

forces wings output:
    sum of forces:
        pressure : (4.39451 -7.25025 -3.14496e-19)
        viscous  : (0.367906 0.0580462 -1.00087e-20)
        porous   : (0 0 0)
    sum of moments:
        pressure : (0.362513 0.219725 3.75058)
        viscous  : (-0.00290231 0.0183953 -0.0336763)
        porous   : (0 0 0)

Time = 51

smoothSolver:  Solving for Ux, Initial residual = 0.0030593, Final residual = 1.21739e-05, No Iterations 8
smoothSolver:  Solving for Uy, Initial residual = 0.00132172, Final residual = 6.48832e-06, No Iterations 8
GAMG:  Solving for p, Initial residual = 0.0044638, Final residual = 1.91025e-05, No Iterations 4
time step continuity errors : sum local = 6.76537e-06, global = -1.01289e-16, cumulative = 1.60452e-15
smoothSolver:  Solving for nuTilda, Initial residual = 0.00279973, Final residual = 1.29318e-05, No Iterations 8
ExecutionTime = 5 s  ClockTime = 5 s

Time = 52

smoothSolver:  Solving for Ux, Initial residual = 0.00298437, Final residual = 1.19373e-05, No Iterations 8
smoothSolver:  Solving for Uy, Initial residual = 0.00130815, Final residual = 6.44005e-06, No Iterations 8
GAMG:  Solving for p, Initial residual = 0.00428035, Final residual = 4.19011e-05, No Iterations 3
time step continuity errors : sum local = 1.4717e-05, global = -1.81264e-16, cumulative = 1.42325e-15
smoothSolver:  Solving for nuTilda, Initial residual = 0.00271947, Final residual = 1.25564e-05, No Iterations 8
ExecutionTime = 5.08 s  ClockTime = 5 s

Time = 53

smoothSolver:  Solving for Ux, Initial residual = 0.00291566, Final residual = 1.17273e-05, No Iterations 8
smoothSolver:  Solving for Uy, Initial residual = 0.00128142, Final residual = 6.33599e-06, No Iterations 8
GAMG:  Solving for p, Initial residual = 0.00407244, Final residual = 1.78959e-05, No Iterations 4
time step continuity errors : sum local = 6.33981e-06, global = -7.81853e-17, cumulative = 1.34507e-15
smoothSolver:  Solving for nuTilda, Initial residual = 0.00264173, Final residual = 1.21977e-05, No Iterations 8
ExecutionTime = 5.17 s  ClockTime = 5 s

Time = 54

smoothSolver:  Solving for Ux, Initial residual = 0.00284925, Final residual = 1.15316e-05, No Iterations 8
smoothSolver:  Solving for Uy, Initial residual = 0.00125698, Final residual = 6.23082e-06, No Iterations 8
GAMG:  Solving for p, Initial residual = 0.00384539, Final residual = 3.83145e-05, No Iterations 3
time step continuity errors : sum local = 1.34391e-05, global = -8.47184e-17, cumulative = 1.26035e-15
smoothSolver:  Solving for nuTilda, Initial residual = 0.00256624, Final residual = 1.18505e-05, No Iterations 8
ExecutionTime = 5.25 s  ClockTime = 6 s

Time = 55

smoothSolver:  Solving for Ux, Initial residual = 0.00278521, Final residual = 1.13361e-05, No Iterations 8
smoothSolver:  Solving for Uy, Initial residual = 0.00123676, Final residual = 6.13878e-06, No Iterations 8
GAMG:  Solving for p, Initial residual = 0.00364649, Final residual = 1.77274e-05, No Iterations 4
time step continuity errors : sum local = 6.25518e-06, global = -1.3821e-16, cumulative = 1.12214e-15
smoothSolver:  Solving for nuTilda, Initial residual = 0.00249275, Final residual = 1.15205e-05, No Iterations 8
ExecutionTime = 5.34 s  ClockTime = 6 s

forces wings output:
    sum of forces:
        pressure : (4.49554 -7.61914 -3.20665e-19)
        viscous  : (0.354719 0.0553901 -1.17235e-20)
        porous   : (0 0 0)
    sum of moments:
        pressure : (0.380957 0.224777 3.72151)
        viscous  : (-0.0027695 0.0177359 -0.0325405)
        porous   : (0 0 0)

Time = 56

smoothSolver:  Solving for Ux, Initial residual = 0.00272589, Final residual = 1.11519e-05, No Iterations 8
smoothSolver:  Solving for Uy, Initial residual = 0.00121905, Final residual = 6.05202e-06, No Iterations 8
GAMG:  Solving for p, Initial residual = 0.00344989, Final residual = 1.44379e-05, No Iterations 4
time step continuity errors : sum local = 5.06258e-06, global = 2.22389e-16, cumulative = 1.34453e-15
smoothSolver:  Solving for nuTilda, Initial residual = 0.00242272, Final residual = 1.12047e-05, No Iterations 8
ExecutionTime = 5.43 s  ClockTime = 6 s

Time = 57

smoothSolver:  Solving for Ux, Initial residual = 0.00267332, Final residual = 1.09844e-05, No Iterations 8
smoothSolver:  Solving for Uy, Initial residual = 0.00120016, Final residual = 5.95704e-06, No Iterations 8
GAMG:  Solving for p, Initial residual = 0.00325755, Final residual = 2.62514e-05, No Iterations 3
time step continuity errors : sum local = 9.20498e-06, global = -2.6684e-16, cumulative = 1.07769e-15
smoothSolver:  Solving for nuTilda, Initial residual = 0.00235638, Final residual = 1.08991e-05, No Iterations 8
ExecutionTime = 5.51 s  ClockTime = 6 s

Time = 58

smoothSolver:  Solving for Ux, Initial residual = 0.0026202, Final residual = 1.08131e-05, No Iterations 8
smoothSolver:  Solving for Uy, Initial residual = 0.00118414, Final residual = 5.8922e-06, No Iterations 8
GAMG:  Solving for p, Initial residual = 0.00307768, Final residual = 2.57879e-05, No Iterations 3
time step continuity errors : sum local = 9.07939e-06, global = 3.93874e-16, cumulative = 1.47156e-15
smoothSolver:  Solving for nuTilda, Initial residual = 0.00229291, Final residual = 1.06071e-05, No Iterations 8
ExecutionTime = 5.6 s  ClockTime = 6 s

Time = 59

smoothSolver:  Solving for Ux, Initial residual = 0.00256826, Final residual = 1.06493e-05, No Iterations 8
smoothSolver:  Solving for Uy, Initial residual = 0.0011697, Final residual = 5.83999e-06, No Iterations 8
GAMG:  Solving for p, Initial residual = 0.00290335, Final residual = 2.78841e-05, No Iterations 3
time step continuity errors : sum local = 9.76295e-06, global = 2.90332e-16, cumulative = 1.76189e-15
smoothSolver:  Solving for nuTilda, Initial residual = 0.00223184, Final residual = 1.03225e-05, No Iterations 8
ExecutionTime = 5.68 s  ClockTime = 6 s

Time = 60

smoothSolver:  Solving for Ux, Initial residual = 0.00251936, Final residual = 1.04995e-05, No Iterations 8
smoothSolver:  Solving for Uy, Initial residual = 0.00115966, Final residual = 5.80017e-06, No Iterations 8
GAMG:  Solving for p, Initial residual = 0.00273756, Final residual = 2.5622e-05, No Iterations 3
time step continuity errors : sum local = 9.03202e-06, global = -1.33633e-16, cumulative = 1.62826e-15
smoothSolver:  Solving for nuTilda, Initial residual = 0.00217391, Final residual = 1.00488e-05, No Iterations 8
ExecutionTime = 5.76 s  ClockTime = 6 s

forces wings output:
    sum of forces:
        pressure : (4.59367 -7.84796 -3.2568e-19)
        viscous  : (0.342074 0.0528344 -1.31689e-20)
        porous   : (0 0 0)
    sum of moments:
        pressure : (0.392398 0.229683 3.76709)
        viscous  : (-0.00264172 0.0171037 -0.0314524)
        porous   : (0 0 0)

Time = 61

smoothSolver:  Solving for Ux, Initial residual = 0.00247372, Final residual = 1.03595e-05, No Iterations 8
smoothSolver:  Solving for Uy, Initial residual = 0.00115215, Final residual = 5.76129e-06, No Iterations 8
GAMG:  Solving for p, Initial residual = 0.00260368, Final residual = 1.08864e-05, No Iterations 4
time step continuity errors : sum local = 3.84559e-06, global = 1.49585e-16, cumulative = 1.77785e-15
smoothSolver:  Solving for nuTilda, Initial residual = 0.00211861, Final residual = 9.78518e-06, No Iterations 8
ExecutionTime = 5.86 s  ClockTime = 6 s

Time = 62

smoothSolver:  Solving for Ux, Initial residual = 0.0024328, Final residual = 1.02339e-05, No Iterations 8
smoothSolver:  Solving for Uy, Initial residual = 0.00114189, Final residual = 5.70566e-06, No Iterations 8
GAMG:  Solving for p, Initial residual = 0.00246741, Final residual = 1.03861e-05, No Iterations 4
time step continuity errors : sum local = 3.63355e-06, global = 5.26818e-17, cumulative = 1.83053e-15
smoothSolver:  Solving for nuTilda, Initial residual = 0.00206561, Final residual = 9.53126e-06, No Iterations 8
ExecutionTime = 5.94 s  ClockTime = 6 s

Time = 63

smoothSolver:  Solving for Ux, Initial residual = 0.00239522, Final residual = 1.01156e-05, No Iterations 8
smoothSolver:  Solving for Uy, Initial residual = 0.00112824, Final residual = 5.63389e-06, No Iterations 8
GAMG:  Solving for p, Initial residual = 0.00233046, Final residual = 2.07535e-05, No Iterations 3
time step continuity errors : sum local = 7.27408e-06, global = -4.67728e-17, cumulative = 1.78375e-15
smoothSolver:  Solving for nuTilda, Initial residual = 0.00201458, Final residual = 9.28539e-06, No Iterations 8
ExecutionTime = 6.03 s  ClockTime = 6 s

Time = 64

smoothSolver:  Solving for Ux, Initial residual = 0.00235704, Final residual = 9.99325e-06, No Iterations 8
smoothSolver:  Solving for Uy, Initial residual = 0.0011175, Final residual = 5.57753e-06, No Iterations 8
GAMG:  Solving for p, Initial residual = 0.00219443, Final residual = 1.96117e-05, No Iterations 3
time step continuity errors : sum local = 6.90138e-06, global = 4.10876e-19, cumulative = 1.78417e-15
smoothSolver:  Solving for nuTilda, Initial residual = 0.00196515, Final residual = 9.04823e-06, No Iterations 8
ExecutionTime = 6.11 s  ClockTime = 6 s

Time = 65

smoothSolver:  Solving for Ux, Initial residual = 0.00232047, Final residual = 9.87843e-06, No Iterations 8
smoothSolver:  Solving for Uy, Initial residual = 0.00110778, Final residual = 5.52719e-06, No Iterations 8
GAMG:  Solving for p, Initial residual = 0.00207425, Final residual = 2.01819e-05, No Iterations 3
time step continuity errors : sum local = 7.06877e-06, global = 6.21037e-17, cumulative = 1.84627e-15
smoothSolver:  Solving for nuTilda, Initial residual = 0.00191762, Final residual = 8.81779e-06, No Iterations 8
ExecutionTime = 6.19 s  ClockTime = 7 s

forces wings output:
    sum of forces:
        pressure : (4.73434 -8.26799 -3.34763e-19)
        viscous  : (0.330004 0.0504003 -1.71101e-20)
        porous   : (0 0 0)
    sum of moments:
        pressure : (0.413399 0.236717 3.77999)
        viscous  : (-0.00252002 0.0165002 -0.0304118)
        porous   : (0 0 0)

Time = 66

smoothSolver:  Solving for Ux, Initial residual = 0.00228771, Final residual = 9.77763e-06, No Iterations 8
smoothSolver:  Solving for Uy, Initial residual = 0.00109843, Final residual = 5.47684e-06, No Iterations 8
GAMG:  Solving for p, Initial residual = 0.00196354, Final residual = 7.60759e-06, No Iterations 4
time step continuity errors : sum local = 2.69933e-06, global = 1.04031e-16, cumulative = 1.9503e-15
smoothSolver:  Solving for nuTilda, Initial residual = 0.00187152, Final residual = 8.59574e-06, No Iterations 8
ExecutionTime = 6.28 s  ClockTime = 7 s

Time = 67

smoothSolver:  Solving for Ux, Initial residual = 0.00225748, Final residual = 9.68131e-06, No Iterations 8
smoothSolver:  Solving for Uy, Initial residual = 0.00109027, Final residual = 5.4268e-06, No Iterations 8
GAMG:  Solving for p, Initial residual = 0.00186551, Final residual = 8.38239e-06, No Iterations 4
time step continuity errors : sum local = 2.92875e-06, global = 1.07067e-16, cumulative = 2.05737e-15
smoothSolver:  Solving for nuTilda, Initial residual = 0.00182689, Final residual = 8.38164e-06, No Iterations 8
ExecutionTime = 6.37 s  ClockTime = 7 s

Time = 68

smoothSolver:  Solving for Ux, Initial residual = 0.00222792, Final residual = 9.57985e-06, No Iterations 8
smoothSolver:  Solving for Uy, Initial residual = 0.00108289, Final residual = 5.37651e-06, No Iterations 8
GAMG:  Solving for p, Initial residual = 0.00177195, Final residual = 1.75667e-05, No Iterations 3
time step continuity errors : sum local = 6.13987e-06, global = 7.75011e-18, cumulative = 2.06512e-15
smoothSolver:  Solving for nuTilda, Initial residual = 0.00178385, Final residual = 8.17592e-06, No Iterations 8
ExecutionTime = 6.45 s  ClockTime = 7 s

Time = 69

smoothSolver:  Solving for Ux, Initial residual = 0.0021978, Final residual = 9.47e-06, No Iterations 8
smoothSolver:  Solving for Uy, Initial residual = 0.00107643, Final residual = 5.33152e-06, No Iterations 8
GAMG:  Solving for p, Initial residual = 0.00168806, Final residual = 1.66636e-05, No Iterations 3
time step continuity errors : sum local = 5.81975e-06, global = -3.69084e-18, cumulative = 2.06143e-15
smoothSolver:  Solving for nuTilda, Initial residual = 0.00174214, Final residual = 7.97664e-06, No Iterations 8
ExecutionTime = 6.53 s  ClockTime = 7 s

Time = 70

smoothSolver:  Solving for Ux, Initial residual = 0.00216998, Final residual = 9.36553e-06, No Iterations 8
smoothSolver:  Solving for Uy, Initial residual = 0.00106858, Final residual = 5.28119e-06, No Iterations 8
GAMG:  Solving for p, Initial residual = 0.00160853, Final residual = 6.9513e-06, No Iterations 4
time step continuity errors : sum local = 2.46164e-06, global = -5.21552e-17, cumulative = 2.00927e-15
smoothSolver:  Solving for nuTilda, Initial residual = 0.00170183, Final residual = 7.7834e-06, No Iterations 8
ExecutionTime = 6.61 s  ClockTime = 7 s

forces wings output:
    sum of forces:
        pressure : (4.86801 -8.69414 -3.43174e-19)
        viscous  : (0.318449 0.0480644 -1.88899e-20)
        porous   : (0 0 0)
    sum of moments:
        pressure : (0.434707 0.2434 3.77681)
        viscous  : (-0.00240322 0.0159225 -0.0294158)
        porous   : (0 0 0)

Time = 71

smoothSolver:  Solving for Ux, Initial residual = 0.00214514, Final residual = 9.26933e-06, No Iterations 8
smoothSolver:  Solving for Uy, Initial residual = 0.00105943, Final residual = 5.22477e-06, No Iterations 8
GAMG:  Solving for p, Initial residual = 0.00153772, Final residual = 6.08357e-06, No Iterations 4
time step continuity errors : sum local = 2.16392e-06, global = -5.41441e-17, cumulative = 1.95513e-15
smoothSolver:  Solving for nuTilda, Initial residual = 0.00166289, Final residual = 7.59598e-06, No Iterations 8
ExecutionTime = 6.7 s  ClockTime = 7 s

Time = 72

smoothSolver:  Solving for Ux, Initial residual = 0.00212213, Final residual = 9.1768e-06, No Iterations 8
smoothSolver:  Solving for Uy, Initial residual = 0.00104962, Final residual = 5.16416e-06, No Iterations 8
GAMG:  Solving for p, Initial residual = 0.00147066, Final residual = 5.88327e-06, No Iterations 4
time step continuity errors : sum local = 2.09203e-06, global = 1.17372e-16, cumulative = 2.0725e-15
smoothSolver:  Solving for nuTilda, Initial residual = 0.00162493, Final residual = 7.41506e-06, No Iterations 8
ExecutionTime = 6.79 s  ClockTime = 7 s

Time = 73

smoothSolver:  Solving for Ux, Initial residual = 0.00209903, Final residual = 9.07961e-06, No Iterations 8
smoothSolver:  Solving for Uy, Initial residual = 0.00104109, Final residual = 5.10793e-06, No Iterations 8
GAMG:  Solving for p, Initial residual = 0.00141041, Final residual = 6.07586e-06, No Iterations 4
time step continuity errors : sum local = 2.11952e-06, global = 7.21133e-17, cumulative = 2.14461e-15
smoothSolver:  Solving for nuTilda, Initial residual = 0.00158793, Final residual = 7.23983e-06, No Iterations 8
ExecutionTime = 6.88 s  ClockTime = 7 s

Time = 74

smoothSolver:  Solving for Ux, Initial residual = 0.00207639, Final residual = 8.98159e-06, No Iterations 8
smoothSolver:  Solving for Uy, Initial residual = 0.00103305, Final residual = 5.05321e-06, No Iterations 8
GAMG:  Solving for p, Initial residual = 0.00135277, Final residual = 5.85938e-06, No Iterations 4
time step continuity errors : sum local = 2.06031e-06, global = -8.90354e-17, cumulative = 2.05558e-15
smoothSolver:  Solving for nuTilda, Initial residual = 0.00155191, Final residual = 7.07048e-06, No Iterations 8
ExecutionTime = 6.97 s  ClockTime = 7 s

Time = 75

smoothSolver:  Solving for Ux, Initial residual = 0.00205422, Final residual = 8.88316e-06, No Iterations 8
smoothSolver:  Solving for Uy, Initial residual = 0.0010264, Final residual = 5.00489e-06, No Iterations 8
GAMG:  Solving for p, Initial residual = 0.00130255, Final residual = 5.90317e-06, No Iterations 4
time step continuity errors : sum local = 2.09948e-06, global = 1.05422e-16, cumulative = 2.161e-15
smoothSolver:  Solving for nuTilda, Initial residual = 0.0015169, Final residual = 6.90647e-06, No Iterations 8
ExecutionTime = 7.06 s  ClockTime = 7 s

forces wings output:
    sum of forces:
        pressure : (4.99049 -9.04115 -3.49969e-19)
        viscous  : (0.307417 0.045834 -1.54963e-20)
        porous   : (0 0 0)
    sum of moments:
        pressure : (0.452058 0.249525 3.7987)
        viscous  : (-0.0022917 0.0153708 -0.0284614)
        porous   : (0 0 0)

Time = 76

smoothSolver:  Solving for Ux, Initial residual = 0.00203285, Final residual = 8.78637e-06, No Iterations 8
smoothSolver:  Solving for Uy, Initial residual = 0.00102034, Final residual = 4.95945e-06, No Iterations 8
GAMG:  Solving for p, Initial residual = 0.00125583, Final residual = 6.05593e-06, No Iterations 4
time step continuity errors : sum local = 2.15668e-06, global = -5.96417e-17, cumulative = 2.10136e-15
smoothSolver:  Solving for nuTilda, Initial residual = 0.00148293, Final residual = 6.74761e-06, No Iterations 8
ExecutionTime = 7.15 s  ClockTime = 7 s

Time = 77

smoothSolver:  Solving for Ux, Initial residual = 0.00201322, Final residual = 8.69605e-06, No Iterations 8
smoothSolver:  Solving for Uy, Initial residual = 0.00101328, Final residual = 4.90921e-06, No Iterations 8
GAMG:  Solving for p, Initial residual = 0.00121541, Final residual = 6.09832e-06, No Iterations 4
time step continuity errors : sum local = 2.17229e-06, global = 6.05031e-18, cumulative = 2.10741e-15
smoothSolver:  Solving for nuTilda, Initial residual = 0.00144991, Final residual = 6.59365e-06, No Iterations 8
ExecutionTime = 7.24 s  ClockTime = 8 s

Time = 78

smoothSolver:  Solving for Ux, Initial residual = 0.00199434, Final residual = 8.60724e-06, No Iterations 8
smoothSolver:  Solving for Uy, Initial residual = 0.00100549, Final residual = 4.85547e-06, No Iterations 8
GAMG:  Solving for p, Initial residual = 0.00117683, Final residual = 5.66154e-06, No Iterations 4
time step continuity errors : sum local = 2.01675e-06, global = -6.03151e-17, cumulative = 2.04709e-15
smoothSolver:  Solving for nuTilda, Initial residual = 0.00141778, Final residual = 6.44461e-06, No Iterations 8
ExecutionTime = 7.32 s  ClockTime = 8 s

Time = 79

smoothSolver:  Solving for Ux, Initial residual = 0.00197557, Final residual = 8.51804e-06, No Iterations 8
smoothSolver:  Solving for Uy, Initial residual = 0.000997735, Final residual = 4.80187e-06, No Iterations 8
GAMG:  Solving for p, Initial residual = 0.00114444, Final residual = 5.35019e-06, No Iterations 4
time step continuity errors : sum local = 1.9083e-06, global = 1.15902e-16, cumulative = 2.16299e-15
smoothSolver:  Solving for nuTilda, Initial residual = 0.00138649, Final residual = 6.29997e-06, No Iterations 8
ExecutionTime = 7.41 s  ClockTime = 8 s

Time = 80

smoothSolver:  Solving for Ux, Initial residual = 0.00195682, Final residual = 8.42767e-06, No Iterations 8
smoothSolver:  Solving for Uy, Initial residual = 0.00099039, Final residual = 4.74978e-06, No Iterations 8
GAMG:  Solving for p, Initial residual = 0.00111347, Final residual = 5.10808e-06, No Iterations 4
time step continuity errors : sum local = 1.82463e-06, global = -3.85184e-16, cumulative = 1.77781e-15
smoothSolver:  Solving for nuTilda, Initial residual = 0.0013561, Final residual = 6.15985e-06, No Iterations 8
ExecutionTime = 7.49 s  ClockTime = 8 s

forces wings output:
    sum of forces:
        pressure : (5.12064 -9.41365 -3.55187e-19)
        viscous  : (0.296873 0.0437083 -1.41925e-20)
        porous   : (0 0 0)
    sum of moments:
        pressure : (0.470683 0.256032 3.81982)
        viscous  : (-0.00218542 0.0148436 -0.0275495)
        porous   : (0 0 0)

Time = 81

smoothSolver:  Solving for Ux, Initial residual = 0.00193858, Final residual = 8.3392e-06, No Iterations 8
smoothSolver:  Solving for Uy, Initial residual = 0.000983695, Final residual = 4.70029e-06, No Iterations 8
GAMG:  Solving for p, Initial residual = 0.00108751, Final residual = 5.24397e-06, No Iterations 4
time step continuity errors : sum local = 1.86775e-06, global = -8.45631e-17, cumulative = 1.69325e-15
smoothSolver:  Solving for nuTilda, Initial residual = 0.00132663, Final residual = 6.02392e-06, No Iterations 8
ExecutionTime = 7.58 s  ClockTime = 8 s

Time = 82

smoothSolver:  Solving for Ux, Initial residual = 0.00192086, Final residual = 8.2524e-06, No Iterations 8
smoothSolver:  Solving for Uy, Initial residual = 0.000977595, Final residual = 4.65366e-06, No Iterations 8
GAMG:  Solving for p, Initial residual = 0.00106415, Final residual = 5.45461e-06, No Iterations 4
time step continuity errors : sum local = 1.94296e-06, global = -1.02897e-16, cumulative = 1.59035e-15
smoothSolver:  Solving for nuTilda, Initial residual = 0.00129822, Final residual = 5.8921e-06, No Iterations 8
ExecutionTime = 7.67 s  ClockTime = 8 s

Time = 83

smoothSolver:  Solving for Ux, Initial residual = 0.00190361, Final residual = 8.16728e-06, No Iterations 8
smoothSolver:  Solving for Uy, Initial residual = 0.000972228, Final residual = 4.6108e-06, No Iterations 8
GAMG:  Solving for p, Initial residual = 0.00104431, Final residual = 5.67375e-06, No Iterations 4
time step continuity errors : sum local = 2.01783e-06, global = 3.50653e-16, cumulative = 1.941e-15
smoothSolver:  Solving for nuTilda, Initial residual = 0.00127081, Final residual = 5.76414e-06, No Iterations 8
ExecutionTime = 7.75 s  ClockTime = 8 s

Time = 84

smoothSolver:  Solving for Ux, Initial residual = 0.001887, Final residual = 8.08534e-06, No Iterations 8
smoothSolver:  Solving for Uy, Initial residual = 0.000966478, Final residual = 4.56661e-06, No Iterations 8
GAMG:  Solving for p, Initial residual = 0.00102531, Final residual = 5.8276e-06, No Iterations 4
time step continuity errors : sum local = 2.07894e-06, global = 1.09279e-17, cumulative = 1.95193e-15
smoothSolver:  Solving for nuTilda, Initial residual = 0.00124431, Final residual = 5.6401e-06, No Iterations 8
ExecutionTime = 7.84 s  ClockTime = 8 s

Time = 85

smoothSolver:  Solving for Ux, Initial residual = 0.0018708, Final residual = 8.0049e-06, No Iterations 8
smoothSolver:  Solving for Uy, Initial residual = 0.000960146, Final residual = 4.51981e-06, No Iterations 8
GAMG:  Solving for p, Initial residual = 0.00100641, Final residual = 5.54305e-06, No Iterations 4
time step continuity errors : sum local = 1.97787e-06, global = 6.87841e-17, cumulative = 2.02071e-15
smoothSolver:  Solving for nuTilda, Initial residual = 0.00121856, Final residual = 5.51956e-06, No Iterations 8
ExecutionTime = 7.93 s  ClockTime = 8 s

forces wings output:
    sum of forces:
        pressure : (5.2412 -9.76045 -3.58455e-19)
        viscous  : (0.286849 0.0416794 -1.3557e-20)
        porous   : (0 0 0)
    sum of moments:
        pressure : (0.488023 0.26206 3.83838)
        viscous  : (-0.00208397 0.0143424 -0.026684)
        porous   : (0 0 0)

Time = 86

smoothSolver:  Solving for Ux, Initial residual = 0.00185459, Final residual = 7.92502e-06, No Iterations 8
smoothSolver:  Solving for Uy, Initial residual = 0.000953895, Final residual = 4.47384e-06, No Iterations 8
GAMG:  Solving for p, Initial residual = 0.000988941, Final residual = 5.83399e-06, No Iterations 4
time step continuity errors : sum local = 2.03704e-06, global = 5.49253e-17, cumulative = 2.07564e-15
smoothSolver:  Solving for nuTilda, Initial residual = 0.00119348, Final residual = 5.40247e-06, No Iterations 8
ExecutionTime = 8.02 s  ClockTime = 8 s

Time = 87

smoothSolver:  Solving for Ux, Initial residual = 0.00183859, Final residual = 7.84619e-06, No Iterations 8
smoothSolver:  Solving for Uy, Initial residual = 0.00094734, Final residual = 4.42689e-06, No Iterations 8
GAMG:  Solving for p, Initial residual = 0.000971673, Final residual = 5.30356e-06, No Iterations 4
time step continuity errors : sum local = 1.86211e-06, global = 1.33068e-17, cumulative = 2.08895e-15
smoothSolver:  Solving for nuTilda, Initial residual = 0.00116901, Final residual = 5.28854e-06, No Iterations 8
ExecutionTime = 8.1 s  ClockTime = 8 s

Time = 88

smoothSolver:  Solving for Ux, Initial residual = 0.00182254, Final residual = 7.76772e-06, No Iterations 8
smoothSolver:  Solving for Uy, Initial residual = 0.000941636, Final residual = 4.38418e-06, No Iterations 8
GAMG:  Solving for p, Initial residual = 0.000955276, Final residual = 4.92093e-06, No Iterations 4
time step continuity errors : sum local = 1.75961e-06, global = 2.18122e-16, cumulative = 2.30707e-15
smoothSolver:  Solving for nuTilda, Initial residual = 0.00114512, Final residual = 5.17784e-06, No Iterations 8
ExecutionTime = 8.2 s  ClockTime = 9 s

Time = 89

smoothSolver:  Solving for Ux, Initial residual = 0.00180669, Final residual = 7.69074e-06, No Iterations 8
smoothSolver:  Solving for Uy, Initial residual = 0.000936768, Final residual = 4.3456e-06, No Iterations 8
GAMG:  Solving for p, Initial residual = 0.000940433, Final residual = 5.15431e-06, No Iterations 4
time step continuity errors : sum local = 1.84011e-06, global = -3.42864e-17, cumulative = 2.27278e-15
smoothSolver:  Solving for nuTilda, Initial residual = 0.00112181, Final residual = 5.07008e-06, No Iterations 8
ExecutionTime = 8.28 s  ClockTime = 9 s

Time = 90

smoothSolver:  Solving for Ux, Initial residual = 0.00179156, Final residual = 7.6176e-06, No Iterations 8
smoothSolver:  Solving for Uy, Initial residual = 0.000931437, Final residual = 4.30547e-06, No Iterations 8
GAMG:  Solving for p, Initial residual = 0.000925824, Final residual = 6.18559e-06, No Iterations 4
time step continuity errors : sum local = 2.15745e-06, global = 7.96832e-17, cumulative = 2.35247e-15
smoothSolver:  Solving for nuTilda, Initial residual = 0.00109913, Final residual = 4.96532e-06, No Iterations 8
ExecutionTime = 8.37 s  ClockTime = 9 s

forces wings output:
    sum of forces:
        pressure : (5.35626 -10.0839 -3.59741e-19)
        viscous  : (0.277607 0.0397752 -9.56892e-21)
        porous   : (0 0 0)
    sum of moments:
        pressure : (0.504196 0.267813 3.86036)
        viscous  : (-0.00198876 0.0138803 -0.0258916)
        porous   : (0 0 0)

Time = 91

smoothSolver:  Solving for Ux, Initial residual = 0.00177708, Final residual = 7.54708e-06, No Iterations 8
smoothSolver:  Solving for Uy, Initial residual = 0.000924892, Final residual = 4.25997e-06, No Iterations 8
GAMG:  Solving for p, Initial residual = 0.000911633, Final residual = 5.8253e-06, No Iterations 4
time step continuity errors : sum local = 2.06686e-06, global = -3.75063e-16, cumulative = 1.9774e-15
smoothSolver:  Solving for nuTilda, Initial residual = 0.00107703, Final residual = 4.86341e-06, No Iterations 8
ExecutionTime = 8.46 s  ClockTime = 9 s

Time = 92

smoothSolver:  Solving for Ux, Initial residual = 0.00176226, Final residual = 7.47528e-06, No Iterations 8
smoothSolver:  Solving for Uy, Initial residual = 0.000918798, Final residual = 4.21662e-06, No Iterations 8
GAMG:  Solving for p, Initial residual = 0.000896716, Final residual = 5.14496e-06, No Iterations 4
time step continuity errors : sum local = 1.8393e-06, global = -5.73337e-17, cumulative = 1.92007e-15
smoothSolver:  Solving for nuTilda, Initial residual = 0.00105543, Final residual = 4.76434e-06, No Iterations 8
ExecutionTime = 8.54 s  ClockTime = 9 s

Time = 93

smoothSolver:  Solving for Ux, Initial residual = 0.00174716, Final residual = 7.40302e-06, No Iterations 8
smoothSolver:  Solving for Uy, Initial residual = 0.000913495, Final residual = 4.17713e-06, No Iterations 8
GAMG:  Solving for p, Initial residual = 0.000883168, Final residual = 5.05349e-06, No Iterations 4
time step continuity errors : sum local = 1.8036e-06, global = -2.21213e-16, cumulative = 1.69885e-15
smoothSolver:  Solving for nuTilda, Initial residual = 0.00103443, Final residual = 4.66777e-06, No Iterations 8
ExecutionTime = 8.63 s  ClockTime = 9 s

Time = 94

smoothSolver:  Solving for Ux, Initial residual = 0.00173246, Final residual = 7.3332e-06, No Iterations 8
smoothSolver:  Solving for Uy, Initial residual = 0.000907999, Final residual = 4.13739e-06, No Iterations 8
GAMG:  Solving for p, Initial residual = 0.000869255, Final residual = 5.78506e-06, No Iterations 4
time step continuity errors : sum local = 2.0189e-06, global = -1.15962e-16, cumulative = 1.58289e-15
smoothSolver:  Solving for nuTilda, Initial residual = 0.00101406, Final residual = 4.57403e-06, No Iterations 8
ExecutionTime = 8.72 s  ClockTime = 9 s

Time = 95

smoothSolver:  Solving for Ux, Initial residual = 0.0017184, Final residual = 7.26614e-06, No Iterations 8
smoothSolver:  Solving for Uy, Initial residual = 0.000901596, Final residual = 4.09354e-06, No Iterations 8
GAMG:  Solving for p, Initial residual = 0.000856062, Final residual = 5.12668e-06, No Iterations 4
time step continuity errors : sum local = 1.83762e-06, global = 2.52032e-16, cumulative = 1.83492e-15
smoothSolver:  Solving for nuTilda, Initial residual = 0.000994308, Final residual = 4.48303e-06, No Iterations 8
ExecutionTime = 8.81 s  ClockTime = 9 s

forces wings output:
    sum of forces:
        pressure : (5.4689 -10.4032 -3.5861e-19)
        viscous  : (0.269308 0.0380284 -8.53738e-21)
        porous   : (0 0 0)
    sum of moments:
        pressure : (0.520159 0.273445 3.88041)
        viscous  : (-0.00190142 0.0134654 -0.0251824)
        porous   : (0 0 0)

Time = 96

smoothSolver:  Solving for Ux, Initial residual = 0.00170425, Final residual = 7.19884e-06, No Iterations 8
smoothSolver:  Solving for Uy, Initial residual = 0.000895947, Final residual = 4.05372e-06, No Iterations 8
GAMG:  Solving for p, Initial residual = 0.000842122, Final residual = 5.08745e-06, No Iterations 4
time step continuity errors : sum local = 1.8189e-06, global = -7.35581e-17, cumulative = 1.76137e-15
smoothSolver:  Solving for nuTilda, Initial residual = 0.000975211, Final residual = 4.3948e-06, No Iterations 8
ExecutionTime = 8.9 s  ClockTime = 9 s

Time = 97

smoothSolver:  Solving for Ux, Initial residual = 0.00168995, Final residual = 7.13097e-06, No Iterations 8
smoothSolver:  Solving for Uy, Initial residual = 0.000890816, Final residual = 4.01675e-06, No Iterations 8
GAMG:  Solving for p, Initial residual = 0.000827377, Final residual = 5.3352e-06, No Iterations 4
time step continuity errors : sum local = 1.91016e-06, global = 1.84487e-16, cumulative = 1.94585e-15
smoothSolver:  Solving for nuTilda, Initial residual = 0.000956699, Final residual = 4.30911e-06, No Iterations 8
ExecutionTime = 8.99 s  ClockTime = 9 s

Time = 98

smoothSolver:  Solving for Ux, Initial residual = 0.00167616, Final residual = 7.06571e-06, No Iterations 8
smoothSolver:  Solving for Uy, Initial residual = 0.000885002, Final residual = 3.97706e-06, No Iterations 8
GAMG:  Solving for p, Initial residual = 0.000812694, Final residual = 5.39267e-06, No Iterations 4
time step continuity errors : sum local = 1.91687e-06, global = -1.14157e-16, cumulative = 1.8317e-15
smoothSolver:  Solving for nuTilda, Initial residual = 0.000938734, Final residual = 4.22592e-06, No Iterations 8
ExecutionTime = 9.07 s  ClockTime = 9 s

Time = 99

smoothSolver:  Solving for Ux, Initial residual = 0.00166263, Final residual = 7.00224e-06, No Iterations 8
smoothSolver:  Solving for Uy, Initial residual = 0.000879169, Final residual = 3.9375e-06, No Iterations 8
GAMG:  Solving for p, Initial residual = 0.000798988, Final residual = 6.00195e-06, No Iterations 4
time step continuity errors : sum local = 2.09311e-06, global = -2.75507e-16, cumulative = 1.55619e-15
smoothSolver:  Solving for nuTilda, Initial residual = 0.0009213, Final residual = 4.14488e-06, No Iterations 8
ExecutionTime = 9.16 s  ClockTime = 9 s

Time = 100

smoothSolver:  Solving for Ux, Initial residual = 0.00164958, Final residual = 6.94075e-06, No Iterations 8
smoothSolver:  Solving for Uy, Initial residual = 0.000872114, Final residual = 3.89285e-06, No Iterations 8
GAMG:  Solving for p, Initial residual = 0.000785779, Final residual = 4.88377e-06, No Iterations 4
time step continuity errors : sum local = 1.75157e-06, global = -8.17745e-18, cumulative = 1.54801e-15
smoothSolver:  Solving for nuTilda, Initial residual = 0.000904415, Final residual = 4.06598e-06, No Iterations 8
ExecutionTime = 9.24 s  ClockTime = 10 s

forces wings output:
    sum of forces:
        pressure : (5.58197 -10.7271 -3.55879e-19)
        viscous  : (0.26165 0.0364029 -8.7367e-21)
        porous   : (0 0 0)
    sum of moments:
        pressure : (0.536353 0.279099 3.89861)
        viscous  : (-0.00182015 0.0130825 -0.0245279)
        porous   : (0 0 0)

Time = 101

smoothSolver:  Solving for Ux, Initial residual = 0.00163609, Final residual = 6.87752e-06, No Iterations 8
smoothSolver:  Solving for Uy, Initial residual = 0.00086637, Final residual = 3.85433e-06, No Iterations 8
GAMG:  Solving for p, Initial residual = 0.000772534, Final residual = 4.84137e-06, No Iterations 4
time step continuity errors : sum local = 1.73132e-06, global = 8.15249e-17, cumulative = 1.62954e-15
smoothSolver:  Solving for nuTilda, Initial residual = 0.000888024, Final residual = 3.9891e-06, No Iterations 8
ExecutionTime = 9.33 s  ClockTime = 10 s

Time = 102

smoothSolver:  Solving for Ux, Initial residual = 0.00162244, Final residual = 6.81372e-06, No Iterations 8
smoothSolver:  Solving for Uy, Initial residual = 0.000861092, Final residual = 3.81834e-06, No Iterations 8
GAMG:  Solving for p, Initial residual = 0.000760366, Final residual = 5.50995e-06, No Iterations 4
time step continuity errors : sum local = 1.95084e-06, global = 7.30142e-20, cumulative = 1.62961e-15
smoothSolver:  Solving for nuTilda, Initial residual = 0.000872074, Final residual = 3.91436e-06, No Iterations 8
ExecutionTime = 9.42 s  ClockTime = 10 s

Time = 103

smoothSolver:  Solving for Ux, Initial residual = 0.00160929, Final residual = 6.75252e-06, No Iterations 8
smoothSolver:  Solving for Uy, Initial residual = 0.000855242, Final residual = 3.78037e-06, No Iterations 8
GAMG:  Solving for p, Initial residual = 0.000748437, Final residual = 4.83695e-06, No Iterations 4
time step continuity errors : sum local = 1.72974e-06, global = 8.83267e-17, cumulative = 1.71794e-15
smoothSolver:  Solving for nuTilda, Initial residual = 0.000856543, Final residual = 3.84142e-06, No Iterations 8
ExecutionTime = 9.51 s  ClockTime = 10 s

Time = 104

smoothSolver:  Solving for Ux, Initial residual = 0.0015963, Final residual = 6.69236e-06, No Iterations 8
smoothSolver:  Solving for Uy, Initial residual = 0.000849919, Final residual = 3.74566e-06, No Iterations 8
GAMG:  Solving for p, Initial residual = 0.000737372, Final residual = 5.61578e-06, No Iterations 4
time step continuity errors : sum local = 1.99965e-06, global = 3.37422e-17, cumulative = 1.75168e-15
smoothSolver:  Solving for nuTilda, Initial residual = 0.000841369, Final residual = 3.77007e-06, No Iterations 8
ExecutionTime = 9.59 s  ClockTime = 10 s

Time = 105

smoothSolver:  Solving for Ux, Initial residual = 0.00158344, Final residual = 6.63268e-06, No Iterations 8
smoothSolver:  Solving for Uy, Initial residual = 0.000844177, Final residual = 3.70867e-06, No Iterations 8
GAMG:  Solving for p, Initial residual = 0.00072589, Final residual = 5.92071e-06, No Iterations 4
time step continuity errors : sum local = 2.06574e-06, global = -1.43246e-16, cumulative = 1.60843e-15
smoothSolver:  Solving for nuTilda, Initial residual = 0.000826512, Final residual = 3.70003e-06, No Iterations 8
ExecutionTime = 9.68 s  ClockTime = 10 s

forces wings output:
    sum of forces:
        pressure : (5.68659 -11.0299 -3.5118e-19)
        viscous  : (0.254448 0.0348697 -9.89481e-21)
        porous   : (0 0 0)
    sum of moments:
        pressure : (0.551497 0.28433 3.91362)
        viscous  : (-0.00174349 0.0127224 -0.0239109)
        porous   : (0 0 0)

Time = 106

smoothSolver:  Solving for Ux, Initial residual = 0.00157076, Final residual = 6.57366e-06, No Iterations 8
smoothSolver:  Solving for Uy, Initial residual = 0.000838375, Final residual = 3.67205e-06, No Iterations 8
GAMG:  Solving for p, Initial residual = 0.000715206, Final residual = 5.30664e-06, No Iterations 4
time step continuity errors : sum local = 1.89096e-06, global = -1.71654e-16, cumulative = 1.43678e-15
smoothSolver:  Solving for nuTilda, Initial residual = 0.000812001, Final residual = 3.6314e-06, No Iterations 8
ExecutionTime = 9.77 s  ClockTime = 10 s

Time = 107

smoothSolver:  Solving for Ux, Initial residual = 0.00155796, Final residual = 6.51446e-06, No Iterations 8
smoothSolver:  Solving for Uy, Initial residual = 0.000833172, Final residual = 3.63841e-06, No Iterations 8
GAMG:  Solving for p, Initial residual = 0.000704004, Final residual = 5.233e-06, No Iterations 4
time step continuity errors : sum local = 1.86686e-06, global = 2.51938e-16, cumulative = 1.68872e-15
smoothSolver:  Solving for nuTilda, Initial residual = 0.000797801, Final residual = 3.56412e-06, No Iterations 8
ExecutionTime = 9.85 s  ClockTime = 10 s

Time = 108

smoothSolver:  Solving for Ux, Initial residual = 0.00154511, Final residual = 6.45516e-06, No Iterations 8
smoothSolver:  Solving for Uy, Initial residual = 0.000828256, Final residual = 3.60651e-06, No Iterations 8
GAMG:  Solving for p, Initial residual = 0.000693608, Final residual = 5.59823e-06, No Iterations 4
time step continuity errors : sum local = 1.97953e-06, global = -2.90022e-16, cumulative = 1.3987e-15
smoothSolver:  Solving for nuTilda, Initial residual = 0.000783935, Final residual = 3.49824e-06, No Iterations 8
ExecutionTime = 9.94 s  ClockTime = 10 s

Time = 109

smoothSolver:  Solving for Ux, Initial residual = 0.00153264, Final residual = 6.39784e-06, No Iterations 8
smoothSolver:  Solving for Uy, Initial residual = 0.000823, Final residual = 3.57357e-06, No Iterations 8
GAMG:  Solving for p, Initial residual = 0.000683246, Final residual = 4.78965e-06, No Iterations 4
time step continuity errors : sum local = 1.71442e-06, global = 3.51044e-16, cumulative = 1.74974e-15
smoothSolver:  Solving for nuTilda, Initial residual = 0.000770352, Final residual = 3.43372e-06, No Iterations 8
ExecutionTime = 10.02 s  ClockTime = 10 s

Time = 110

smoothSolver:  Solving for Ux, Initial residual = 0.00152039, Final residual = 6.34172e-06, No Iterations 8
smoothSolver:  Solving for Uy, Initial residual = 0.000818037, Final residual = 3.54233e-06, No Iterations 8
GAMG:  Solving for p, Initial residual = 0.000673759, Final residual = 5.04352e-06, No Iterations 4
time step continuity errors : sum local = 1.80978e-06, global = -3.67692e-17, cumulative = 1.71297e-15
smoothSolver:  Solving for nuTilda, Initial residual = 0.000756983, Final residual = 3.3706e-06, No Iterations 8
ExecutionTime = 10.11 s  ClockTime = 10 s

forces wings output:
    sum of forces:
        pressure : (5.78 -11.3025 -3.42865e-19)
        viscous  : (0.247685 0.0334243 -6.43439e-21)
        porous   : (0 0 0)
    sum of moments:
        pressure : (0.565127 0.289 3.92576)
        viscous  : (-0.00167122 0.0123842 -0.0233333)
        porous   : (0 0 0)

Time = 111

smoothSolver:  Solving for Ux, Initial residual = 0.00150831, Final residual = 6.2863e-06, No Iterations 8
smoothSolver:  Solving for Uy, Initial residual = 0.00081267, Final residual = 3.50936e-06, No Iterations 8
GAMG:  Solving for p, Initial residual = 0.000664363, Final residual = 5.19718e-06, No Iterations 4
time step continuity errors : sum local = 1.85102e-06, global = -4.29282e-18, cumulative = 1.70868e-15
smoothSolver:  Solving for nuTilda, Initial residual = 0.000743899, Final residual = 3.30886e-06, No Iterations 8
ExecutionTime = 10.2 s  ClockTime = 11 s

Time = 112

smoothSolver:  Solving for Ux, Initial residual = 0.00149609, Final residual = 6.23035e-06, No Iterations 8
smoothSolver:  Solving for Uy, Initial residual = 0.000807611, Final residual = 3.47817e-06, No Iterations 8
GAMG:  Solving for p, Initial residual = 0.000655697, Final residual = 5.08472e-06, No Iterations 4
time step continuity errors : sum local = 1.82051e-06, global = 3.03582e-17, cumulative = 1.73904e-15
smoothSolver:  Solving for nuTilda, Initial residual = 0.000731033, Final residual = 3.24849e-06, No Iterations 8
ExecutionTime = 10.29 s  ClockTime = 11 s

Time = 113

smoothSolver:  Solving for Ux, Initial residual = 0.0014841, Final residual = 6.17561e-06, No Iterations 8
smoothSolver:  Solving for Uy, Initial residual = 0.000802572, Final residual = 3.44718e-06, No Iterations 8
GAMG:  Solving for p, Initial residual = 0.000647281, Final residual = 5.80784e-06, No Iterations 4
time step continuity errors : sum local = 2.06874e-06, global = 6.84805e-18, cumulative = 1.74588e-15
smoothSolver:  Solving for nuTilda, Initial residual = 0.000718403, Final residual = 3.18962e-06, No Iterations 8
ExecutionTime = 10.37 s  ClockTime = 11 s

Time = 114

smoothSolver:  Solving for Ux, Initial residual = 0.0014722, Final residual = 6.12115e-06, No Iterations 8
smoothSolver:  Solving for Uy, Initial residual = 0.000797609, Final residual = 3.4172e-06, No Iterations 8
GAMG:  Solving for p, Initial residual = 0.000639355, Final residual = 4.86325e-06, No Iterations 4
time step continuity errors : sum local = 1.75058e-06, global = 1.10919e-16, cumulative = 1.8568e-15
smoothSolver:  Solving for nuTilda, Initial residual = 0.000706009, Final residual = 3.13218e-06, No Iterations 8
ExecutionTime = 10.46 s  ClockTime = 11 s

Time = 115

smoothSolver:  Solving for Ux, Initial residual = 0.00146044, Final residual = 6.0678e-06, No Iterations 8
smoothSolver:  Solving for Uy, Initial residual = 0.000793319, Final residual = 3.39103e-06, No Iterations 8
GAMG:  Solving for p, Initial residual = 0.000631602, Final residual = 4.70568e-06, No Iterations 4
time step continuity errors : sum local = 1.68725e-06, global = 2.4344e-16, cumulative = 2.10024e-15
smoothSolver:  Solving for nuTilda, Initial residual = 0.000693868, Final residual = 3.07628e-06, No Iterations 8
ExecutionTime = 10.55 s  ClockTime = 11 s

forces wings output:
    sum of forces:
        pressure : (5.86963 -11.5714 -3.3261e-19)
        viscous  : (0.241411 0.0320607 -7.65696e-21)
        porous   : (0 0 0)
    sum of moments:
        pressure : (0.578568 0.293482 3.9333)
        viscous  : (-0.00160303 0.0120705 -0.0227992)
        porous   : (0 0 0)

Time = 116

smoothSolver:  Solving for Ux, Initial residual = 0.00144869, Final residual = 6.01432e-06, No Iterations 8
smoothSolver:  Solving for Uy, Initial residual = 0.000789601, Final residual = 3.36802e-06, No Iterations 8
GAMG:  Solving for p, Initial residual = 0.000624951, Final residual = 5.08313e-06, No Iterations 4
time step continuity errors : sum local = 1.8186e-06, global = -2.3664e-16, cumulative = 1.8636e-15
smoothSolver:  Solving for nuTilda, Initial residual = 0.000681985, Final residual = 3.02193e-06, No Iterations 8
ExecutionTime = 10.64 s  ClockTime = 11 s

Time = 117

smoothSolver:  Solving for Ux, Initial residual = 0.00143712, Final residual = 5.96164e-06, No Iterations 8
smoothSolver:  Solving for Uy, Initial residual = 0.000785718, Final residual = 3.34469e-06, No Iterations 8
GAMG:  Solving for p, Initial residual = 0.000619194, Final residual = 5.32383e-06, No Iterations 4
time step continuity errors : sum local = 1.9086e-06, global = -1.37137e-16, cumulative = 1.72647e-15
smoothSolver:  Solving for nuTilda, Initial residual = 0.000670393, Final residual = 2.96914e-06, No Iterations 8
ExecutionTime = 10.73 s  ClockTime = 11 s

Time = 118

smoothSolver:  Solving for Ux, Initial residual = 0.00142601, Final residual = 5.91101e-06, No Iterations 8
smoothSolver:  Solving for Uy, Initial residual = 0.000781555, Final residual = 3.32015e-06, No Iterations 8
GAMG:  Solving for p, Initial residual = 0.000613601, Final residual = 2.67362e-06, No Iterations 5
time step continuity errors : sum local = 9.40716e-07, global = -4.21348e-16, cumulative = 1.30512e-15
smoothSolver:  Solving for nuTilda, Initial residual = 0.000659118, Final residual = 2.9178e-06, No Iterations 8
ExecutionTime = 10.81 s  ClockTime = 11 s

Time = 119

smoothSolver:  Solving for Ux, Initial residual = 0.00141493, Final residual = 5.86064e-06, No Iterations 8
smoothSolver:  Solving for Uy, Initial residual = 0.000777112, Final residual = 3.295e-06, No Iterations 8
GAMG:  Solving for p, Initial residual = 0.000608491, Final residual = 5.78426e-06, No Iterations 4
time step continuity errors : sum local = 2.06363e-06, global = -1.65702e-16, cumulative = 1.13942e-15
smoothSolver:  Solving for nuTilda, Initial residual = 0.000648121, Final residual = 2.86785e-06, No Iterations 8
ExecutionTime = 10.9 s  ClockTime = 11 s

Time = 120

smoothSolver:  Solving for Ux, Initial residual = 0.00140377, Final residual = 5.80987e-06, No Iterations 8
smoothSolver:  Solving for Uy, Initial residual = 0.000773645, Final residual = 3.2753e-06, No Iterations 8
GAMG:  Solving for p, Initial residual = 0.000603357, Final residual = 5.07525e-06, No Iterations 4
time step continuity errors : sum local = 1.82517e-06, global = -8.16792e-17, cumulative = 1.05774e-15
smoothSolver:  Solving for nuTilda, Initial residual = 0.000637408, Final residual = 2.81916e-06, No Iterations 8
ExecutionTime = 10.98 s  ClockTime = 11 s

forces wings output:
    sum of forces:
        pressure : (5.95566 -11.8378 -3.201e-19)
        viscous  : (0.235584 0.0307851 -8.9102e-21)
        porous   : (0 0 0)
    sum of moments:
        pressure : (0.591892 0.297783 3.93569)
        viscous  : (-0.00153925 0.0117792 -0.0223038)
        porous   : (0 0 0)

Time = 121

smoothSolver:  Solving for Ux, Initial residual = 0.00139277, Final residual = 5.76048e-06, No Iterations 8
smoothSolver:  Solving for Uy, Initial residual = 0.000770473, Final residual = 3.25697e-06, No Iterations 8
GAMG:  Solving for p, Initial residual = 0.000599107, Final residual = 5.54202e-06, No Iterations 4
time step continuity errors : sum local = 1.98171e-06, global = -1.28057e-16, cumulative = 9.2968e-16
smoothSolver:  Solving for nuTilda, Initial residual = 0.000626975, Final residual = 2.77161e-06, No Iterations 8
ExecutionTime = 11.07 s  ClockTime = 11 s

Time = 122

smoothSolver:  Solving for Ux, Initial residual = 0.00138192, Final residual = 5.71138e-06, No Iterations 8
smoothSolver:  Solving for Uy, Initial residual = 0.000767533, Final residual = 3.24021e-06, No Iterations 8
[...]

forces wings output:
    sum of forces:
        pressure : (3.94343 -13.7532 -2.69066e-19)
        viscous  : (0.10619 0.0181942 -9.11432e-21)
        porous   : (0 0 0)
    sum of moments:
        pressure : (0.68766 0.197172 -0.766969)
        viscous  : (-0.000909709 0.00530951 -0.00933329)
        porous   : (0 0 0)

Time = 4971

smoothSolver:  Solving for Ux, Initial residual = 1.30962e-08, Final residual = 2.37759e-09, No Iterations 2
smoothSolver:  Solving for Uy, Initial residual = 9.57903e-08, Final residual = 3.50949e-09, No Iterations 4
GAMG:  Solving for p, Initial residual = 7.38932e-07, Final residual = 7.38932e-07, No Iterations 0
time step continuity errors : sum local = 2.76268e-07, global = -3.87681e-17, cumulative = 5.29665e-14
smoothSolver:  Solving for nuTilda, Initial residual = 9.99009e-09, Final residual = 9.99009e-09, No Iterations 0
ExecutionTime = 404.22 s  ClockTime = 406 s

Time = 4972

smoothSolver:  Solving for Ux, Initial residual = 1.20785e-08, Final residual = 2.27465e-09, No Iterations 2
smoothSolver:  Solving for Uy, Initial residual = 8.74937e-08, Final residual = 3.35801e-09, No Iterations 4
GAMG:  Solving for p, Initial residual = 9.68959e-07, Final residual = 9.68959e-07, No Iterations 0
time step continuity errors : sum local = 3.62252e-07, global = 1.26731e-16, cumulative = 5.30932e-14
smoothSolver:  Solving for nuTilda, Initial residual = 1.00524e-08, Final residual = 2.3616e-09, No Iterations 2
ExecutionTime = 404.29 s  ClockTime = 406 s

Time = 4973

smoothSolver:  Solving for Ux, Initial residual = 1.41562e-08, Final residual = 2.84477e-09, No Iterations 2
smoothSolver:  Solving for Uy, Initial residual = 9.25791e-08, Final residual = 3.94492e-09, No Iterations 4
GAMG:  Solving for p, Initial residual = 1.55405e-06, Final residual = 4.73897e-07, No Iterations 1
time step continuity errors : sum local = 1.77185e-07, global = -1.23466e-16, cumulative = 5.29698e-14
smoothSolver:  Solving for nuTilda, Initial residual = 1.0915e-08, Final residual = 2.25403e-09, No Iterations 2
ExecutionTime = 404.37 s  ClockTime = 406 s

Time = 4974

smoothSolver:  Solving for Ux, Initial residual = 1.66551e-08, Final residual = 3.01545e-09, No Iterations 2
smoothSolver:  Solving for Uy, Initial residual = 1.17794e-07, Final residual = 4.36404e-09, No Iterations 4
GAMG:  Solving for p, Initial residual = 1.11899e-06, Final residual = 3.12194e-07, No Iterations 1
time step continuity errors : sum local = 1.167e-07, global = 4.2714e-16, cumulative = 5.33969e-14
smoothSolver:  Solving for nuTilda, Initial residual = 9.42739e-09, Final residual = 9.42739e-09, No Iterations 0
ExecutionTime = 404.44 s  ClockTime = 406 s

Time = 4975

smoothSolver:  Solving for Ux, Initial residual = 2.13467e-08, Final residual = 3.75557e-09, No Iterations 2
smoothSolver:  Solving for Uy, Initial residual = 1.66057e-07, Final residual = 6.04944e-09, No Iterations 4
GAMG:  Solving for p, Initial residual = 9.22891e-07, Final residual = 9.22891e-07, No Iterations 0
time step continuity errors : sum local = 3.45003e-07, global = -4.86671e-17, cumulative = 5.33482e-14
smoothSolver:  Solving for nuTilda, Initial residual = 9.5519e-09, Final residual = 9.5519e-09, No Iterations 0
ExecutionTime = 404.5 s  ClockTime = 406 s

forces wings output:
    sum of forces:
        pressure : (3.94342 -13.7532 -2.69066e-19)
        viscous  : (0.106185 0.0181922 -9.08881e-21)
        porous   : (0 0 0)
    sum of moments:
        pressure : (0.687658 0.197171 -0.766968)
        viscous  : (-0.000909609 0.00530925 -0.00933301)
        porous   : (0 0 0)

Time = 4976

smoothSolver:  Solving for Ux, Initial residual = 1.88411e-08, Final residual = 3.42313e-09, No Iterations 2
smoothSolver:  Solving for Uy, Initial residual = 1.49132e-07, Final residual = 5.59467e-09, No Iterations 4
GAMG:  Solving for p, Initial residual = 1.6836e-06, Final residual = 4.52978e-07, No Iterations 1
time step continuity errors : sum local = 1.69358e-07, global = -2.60648e-16, cumulative = 5.30876e-14
smoothSolver:  Solving for nuTilda, Initial residual = 9.61155e-09, Final residual = 9.61155e-09, No Iterations 0
ExecutionTime = 404.57 s  ClockTime = 406 s

Time = 4977

smoothSolver:  Solving for Ux, Initial residual = 1.51171e-08, Final residual = 2.80497e-09, No Iterations 2
smoothSolver:  Solving for Uy, Initial residual = 1.10427e-07, Final residual = 4.40078e-09, No Iterations 4
GAMG:  Solving for p, Initial residual = 1.18774e-06, Final residual = 3.57377e-07, No Iterations 1
time step continuity errors : sum local = 1.3364e-07, global = -5.25407e-17, cumulative = 5.3035e-14
smoothSolver:  Solving for nuTilda, Initial residual = 9.65246e-09, Final residual = 9.65246e-09, No Iterations 0
ExecutionTime = 404.64 s  ClockTime = 406 s

Time = 4978

smoothSolver:  Solving for Ux, Initial residual = 1.85917e-08, Final residual = 3.37003e-09, No Iterations 2
smoothSolver:  Solving for Uy, Initial residual = 1.47535e-07, Final residual = 5.76455e-09, No Iterations 4
GAMG:  Solving for p, Initial residual = 8.68895e-07, Final residual = 8.68895e-07, No Iterations 0
time step continuity errors : sum local = 3.24799e-07, global = -1.26862e-16, cumulative = 5.29082e-14
smoothSolver:  Solving for nuTilda, Initial residual = 9.69986e-09, Final residual = 9.69986e-09, No Iterations 0
ExecutionTime = 404.71 s  ClockTime = 406 s

Time = 4979

smoothSolver:  Solving for Ux, Initial residual = 1.6838e-08, Final residual = 3.16173e-09, No Iterations 2
smoothSolver:  Solving for Uy, Initial residual = 1.35945e-07, Final residual = 5.51499e-09, No Iterations 4
GAMG:  Solving for p, Initial residual = 1.27534e-06, Final residual = 3.97442e-07, No Iterations 1
time step continuity errors : sum local = 1.48608e-07, global = -1.84157e-16, cumulative = 5.2724e-14
smoothSolver:  Solving for nuTilda, Initial residual = 9.70493e-09, Final residual = 9.70493e-09, No Iterations 0
ExecutionTime = 404.77 s  ClockTime = 406 s

Time = 4980

smoothSolver:  Solving for Ux, Initial residual = 1.35672e-08, Final residual = 2.4263e-09, No Iterations 2
smoothSolver:  Solving for Uy, Initial residual = 1.03886e-07, Final residual = 3.98916e-09, No Iterations 4
GAMG:  Solving for p, Initial residual = 8.81498e-07, Final residual = 8.81498e-07, No Iterations 0
time step continuity errors : sum local = 3.29521e-07, global = 6.55384e-18, cumulative = 5.27306e-14
smoothSolver:  Solving for nuTilda, Initial residual = 9.75426e-09, Final residual = 9.75426e-09, No Iterations 0
ExecutionTime = 404.84 s  ClockTime = 406 s

forces wings output:
    sum of forces:
        pressure : (3.94342 -13.7532 -2.69068e-19)
        viscous  : (0.10619 0.018194 -9.11177e-21)
        porous   : (0 0 0)
    sum of moments:
        pressure : (0.687658 0.197171 -0.766969)
        viscous  : (-0.000909698 0.00530948 -0.00933326)
        porous   : (0 0 0)

Time = 4981

smoothSolver:  Solving for Ux, Initial residual = 1.22022e-08, Final residual = 2.28413e-09, No Iterations 2
smoothSolver:  Solving for Uy, Initial residual = 9.42609e-08, Final residual = 3.7699e-09, No Iterations 4
GAMG:  Solving for p, Initial residual = 1.08049e-06, Final residual = 3.84037e-07, No Iterations 1
time step continuity errors : sum local = 1.43567e-07, global = -7.31345e-17, cumulative = 5.26574e-14
smoothSolver:  Solving for nuTilda, Initial residual = 9.75389e-09, Final residual = 9.75389e-09, No Iterations 0
ExecutionTime = 404.9 s  ClockTime = 406 s

Time = 4982

smoothSolver:  Solving for Ux, Initial residual = 1.39588e-08, Final residual = 2.47063e-09, No Iterations 2
smoothSolver:  Solving for Uy, Initial residual = 1.09991e-07, Final residual = 3.96695e-09, No Iterations 4
GAMG:  Solving for p, Initial residual = 7.76455e-07, Final residual = 7.76455e-07, No Iterations 0
time step continuity errors : sum local = 2.90255e-07, global = 7.83671e-17, cumulative = 5.27358e-14
smoothSolver:  Solving for nuTilda, Initial residual = 9.80083e-09, Final residual = 9.80083e-09, No Iterations 0
ExecutionTime = 404.96 s  ClockTime = 406 s

Time = 4983

smoothSolver:  Solving for Ux, Initial residual = 1.27794e-08, Final residual = 2.35223e-09, No Iterations 2
smoothSolver:  Solving for Uy, Initial residual = 1.00476e-07, Final residual = 3.7476e-09, No Iterations 4
GAMG:  Solving for p, Initial residual = 1.06567e-06, Final residual = 3.72048e-07, No Iterations 1
time step continuity errors : sum local = 1.39099e-07, global = 4.42251e-17, cumulative = 5.278e-14
smoothSolver:  Solving for nuTilda, Initial residual = 9.81019e-09, Final residual = 9.81019e-09, No Iterations 0
ExecutionTime = 405.04 s  ClockTime = 406 s

Time = 4984

smoothSolver:  Solving for Ux, Initial residual = 1.18183e-08, Final residual = 2.00545e-09, No Iterations 2
smoothSolver:  Solving for Uy, Initial residual = 9.47033e-08, Final residual = 3.35402e-09, No Iterations 4
GAMG:  Solving for p, Initial residual = 7.62432e-07, Final residual = 7.62432e-07, No Iterations 0
time step continuity errors : sum local = 2.84995e-07, global = -1.33719e-16, cumulative = 5.26463e-14
smoothSolver:  Solving for nuTilda, Initial residual = 9.85756e-09, Final residual = 9.85756e-09, No Iterations 0
ExecutionTime = 405.1 s  ClockTime = 406 s

Time = 4985

smoothSolver:  Solving for Ux, Initial residual = 1.0736e-08, Final residual = 1.90618e-09, No Iterations 2
smoothSolver:  Solving for Uy, Initial residual = 8.61545e-08, Final residual = 3.21763e-09, No Iterations 4
GAMG:  Solving for p, Initial residual = 9.68797e-07, Final residual = 9.68797e-07, No Iterations 0
time step continuity errors : sum local = 3.62134e-07, global = 4.95663e-17, cumulative = 5.26959e-14
smoothSolver:  Solving for nuTilda, Initial residual = 9.9089e-09, Final residual = 9.9089e-09, No Iterations 0
ExecutionTime = 405.16 s  ClockTime = 407 s

forces wings output:
    sum of forces:
        pressure : (3.94343 -13.7532 -2.69068e-19)
        viscous  : (0.10619 0.0181942 -9.11471e-21)
        porous   : (0 0 0)
    sum of moments:
        pressure : (0.687659 0.197172 -0.766971)
        viscous  : (-0.000909711 0.00530951 -0.0093333)
        porous   : (0 0 0)

Time = 4986

smoothSolver:  Solving for Ux, Initial residual = 9.97507e-09, Final residual = 9.97507e-09, No Iterations 0
smoothSolver:  Solving for Uy, Initial residual = 7.96633e-08, Final residual = 3.10905e-09, No Iterations 4
GAMG:  Solving for p, Initial residual = 1.1482e-06, Final residual = 4.1172e-07, No Iterations 1
time step continuity errors : sum local = 1.53981e-07, global = 3.32419e-17, cumulative = 5.27291e-14
smoothSolver:  Solving for nuTilda, Initial residual = 9.86411e-09, Final residual = 9.86411e-09, No Iterations 0
ExecutionTime = 405.24 s  ClockTime = 407 s

Time = 4987

smoothSolver:  Solving for Ux, Initial residual = 1.2958e-08, Final residual = 2.27868e-09, No Iterations 2
smoothSolver:  Solving for Uy, Initial residual = 9.87345e-08, Final residual = 3.63116e-09, No Iterations 4
GAMG:  Solving for p, Initial residual = 6.80496e-07, Final residual = 6.80496e-07, No Iterations 0
time step continuity errors : sum local = 2.54392e-07, global = -1.83446e-16, cumulative = 5.25457e-14
smoothSolver:  Solving for nuTilda, Initial residual = 9.89725e-09, Final residual = 9.89725e-09, No Iterations 0
ExecutionTime = 405.3 s  ClockTime = 407 s

Time = 4988

smoothSolver:  Solving for Ux, Initial residual = 1.18142e-08, Final residual = 2.16422e-09, No Iterations 2
smoothSolver:  Solving for Uy, Initial residual = 8.99701e-08, Final residual = 3.43666e-09, No Iterations 4
GAMG:  Solving for p, Initial residual = 8.60764e-07, Final residual = 8.60764e-07, No Iterations 0
time step continuity errors : sum local = 3.21776e-07, global = 1.54933e-16, cumulative = 5.27006e-14
smoothSolver:  Solving for nuTilda, Initial residual = 9.9177e-09, Final residual = 9.9177e-09, No Iterations 0
ExecutionTime = 405.36 s  ClockTime = 407 s

Time = 4989

smoothSolver:  Solving for Ux, Initial residual = 1.1029e-08, Final residual = 2.09696e-09, No Iterations 2
smoothSolver:  Solving for Uy, Initial residual = 8.27695e-08, Final residual = 3.26324e-09, No Iterations 4
GAMG:  Solving for p, Initial residual = 1.14563e-06, Final residual = 4.06921e-07, No Iterations 1
time step continuity errors : sum local = 1.52212e-07, global = 2.10359e-16, cumulative = 5.2911e-14
smoothSolver:  Solving for nuTilda, Initial residual = 9.88272e-09, Final residual = 9.88272e-09, No Iterations 0
ExecutionTime = 405.42 s  ClockTime = 407 s

Time = 4990

smoothSolver:  Solving for Ux, Initial residual = 1.3404e-08, Final residual = 2.30001e-09, No Iterations 2
smoothSolver:  Solving for Uy, Initial residual = 1.061e-07, Final residual = 3.88014e-09, No Iterations 4
GAMG:  Solving for p, Initial residual = 6.97529e-07, Final residual = 6.97529e-07, No Iterations 0
time step continuity errors : sum local = 2.60784e-07, global = -1.94435e-16, cumulative = 5.27165e-14
smoothSolver:  Solving for nuTilda, Initial residual = 9.88182e-09, Final residual = 9.88182e-09, No Iterations 0
ExecutionTime = 405.48 s  ClockTime = 407 s

forces wings output:
    sum of forces:
        pressure : (3.94344 -13.7532 -2.69066e-19)
        viscous  : (0.10619 0.0181942 -9.11488e-21)
        porous   : (0 0 0)
    sum of moments:
        pressure : (0.687662 0.197172 -0.766978)
        viscous  : (-0.000909711 0.00530951 -0.0093333)
        porous   : (0 0 0)

Time = 4991

smoothSolver:  Solving for Ux, Initial residual = 1.2026e-08, Final residual = 2.17937e-09, No Iterations 2
smoothSolver:  Solving for Uy, Initial residual = 9.64288e-08, Final residual = 3.72378e-09, No Iterations 4
GAMG:  Solving for p, Initial residual = 8.59836e-07, Final residual = 8.59836e-07, No Iterations 0
time step continuity errors : sum local = 3.21454e-07, global = -1.63376e-16, cumulative = 5.25532e-14
smoothSolver:  Solving for nuTilda, Initial residual = 9.86953e-09, Final residual = 9.86953e-09, No Iterations 0
ExecutionTime = 405.55 s  ClockTime = 407 s

Time = 4992

smoothSolver:  Solving for Ux, Initial residual = 1.11244e-08, Final residual = 2.09156e-09, No Iterations 2
smoothSolver:  Solving for Uy, Initial residual = 8.90774e-08, Final residual = 3.60618e-09, No Iterations 4
GAMG:  Solving for p, Initial residual = 1.12191e-06, Final residual = 4.05511e-07, No Iterations 1
time step continuity errors : sum local = 1.51666e-07, global = -1.19195e-16, cumulative = 5.2434e-14
smoothSolver:  Solving for nuTilda, Initial residual = 9.846e-09, Final residual = 9.846e-09, No Iterations 0
ExecutionTime = 405.62 s  ClockTime = 407 s

Time = 4993

smoothSolver:  Solving for Ux, Initial residual = 1.3854e-08, Final residual = 2.33628e-09, No Iterations 2
smoothSolver:  Solving for Uy, Initial residual = 1.03152e-07, Final residual = 3.64283e-09, No Iterations 4
GAMG:  Solving for p, Initial residual = 6.71032e-07, Final residual = 6.71032e-07, No Iterations 0
time step continuity errors : sum local = 2.5089e-07, global = -1.91805e-18, cumulative = 5.2432e-14
smoothSolver:  Solving for nuTilda, Initial residual = 9.88531e-09, Final residual = 9.88531e-09, No Iterations 0
ExecutionTime = 405.68 s  ClockTime = 407 s

Time = 4994

smoothSolver:  Solving for Ux, Initial residual = 1.24891e-08, Final residual = 2.21077e-09, No Iterations 2
smoothSolver:  Solving for Uy, Initial residual = 9.29876e-08, Final residual = 3.43244e-09, No Iterations 4
GAMG:  Solving for p, Initial residual = 8.73167e-07, Final residual = 8.73167e-07, No Iterations 0
time step continuity errors : sum local = 3.26449e-07, global = 1.47067e-16, cumulative = 5.25791e-14
smoothSolver:  Solving for nuTilda, Initial residual = 9.93895e-09, Final residual = 9.93895e-09, No Iterations 0
ExecutionTime = 405.74 s  ClockTime = 407 s

Time = 4995

smoothSolver:  Solving for Ux, Initial residual = 1.15419e-08, Final residual = 2.1206e-09, No Iterations 2
smoothSolver:  Solving for Uy, Initial residual = 8.48097e-08, Final residual = 3.25995e-09, No Iterations 4
GAMG:  Solving for p, Initial residual = 1.16541e-06, Final residual = 4.31121e-07, No Iterations 1
time step continuity errors : sum local = 1.61177e-07, global = 1.23923e-17, cumulative = 5.25915e-14
smoothSolver:  Solving for nuTilda, Initial residual = 9.93497e-09, Final residual = 9.93497e-09, No Iterations 0
ExecutionTime = 405.8 s  ClockTime = 407 s

forces wings output:
    sum of forces:
        pressure : (3.94344 -13.7532 -2.69066e-19)
        viscous  : (0.10619 0.0181942 -9.1137e-21)
        porous   : (0 0 0)
    sum of moments:
        pressure : (0.687662 0.197172 -0.766973)
        viscous  : (-0.00090971 0.00530951 -0.00933331)
        porous   : (0 0 0)

Time = 4996

smoothSolver:  Solving for Ux, Initial residual = 1.31604e-08, Final residual = 2.11264e-09, No Iterations 2
smoothSolver:  Solving for Uy, Initial residual = 1.05406e-07, Final residual = 3.78333e-09, No Iterations 4
GAMG:  Solving for p, Initial residual = 7.10317e-07, Final residual = 7.10317e-07, No Iterations 0
time step continuity errors : sum local = 2.65565e-07, global = -1.40206e-16, cumulative = 5.24513e-14
smoothSolver:  Solving for nuTilda, Initial residual = 1.00216e-08, Final residual = 2.37102e-09, No Iterations 2
ExecutionTime = 405.87 s  ClockTime = 407 s

Time = 4997

smoothSolver:  Solving for Ux, Initial residual = 1.45878e-08, Final residual = 2.69652e-09, No Iterations 2
smoothSolver:  Solving for Uy, Initial residual = 1.07299e-07, Final residual = 4.37803e-09, No Iterations 4
GAMG:  Solving for p, Initial residual = 1.18747e-06, Final residual = 3.47978e-07, No Iterations 1
time step continuity errors : sum local = 1.30109e-07, global = -1.22131e-16, cumulative = 5.23292e-14
smoothSolver:  Solving for nuTilda, Initial residual = 1.10206e-08, Final residual = 2.28188e-09, No Iterations 2
ExecutionTime = 405.94 s  ClockTime = 407 s

Time = 4998

smoothSolver:  Solving for Ux, Initial residual = 1.57193e-08, Final residual = 2.85892e-09, No Iterations 2
smoothSolver:  Solving for Uy, Initial residual = 1.18378e-07, Final residual = 4.76316e-09, No Iterations 4
GAMG:  Solving for p, Initial residual = 1.06215e-06, Final residual = 2.90448e-07, No Iterations 1
time step continuity errors : sum local = 1.08643e-07, global = 1.65048e-16, cumulative = 5.24942e-14
smoothSolver:  Solving for nuTilda, Initial residual = 9.57838e-09, Final residual = 9.57838e-09, No Iterations 0
ExecutionTime = 406.01 s  ClockTime = 407 s

Time = 4999

smoothSolver:  Solving for Ux, Initial residual = 1.81684e-08, Final residual = 3.27574e-09, No Iterations 2
smoothSolver:  Solving for Uy, Initial residual = 1.38775e-07, Final residual = 5.75222e-09, No Iterations 4
GAMG:  Solving for p, Initial residual = 8.63202e-07, Final residual = 8.63202e-07, No Iterations 0
time step continuity errors : sum local = 3.22671e-07, global = -2.0873e-16, cumulative = 5.22855e-14
smoothSolver:  Solving for nuTilda, Initial residual = 9.67984e-09, Final residual = 9.67984e-09, No Iterations 0
ExecutionTime = 406.08 s  ClockTime = 407 s

Time = 5000

smoothSolver:  Solving for Ux, Initial residual = 1.59919e-08, Final residual = 2.96004e-09, No Iterations 2
smoothSolver:  Solving for Uy, Initial residual = 1.24232e-07, Final residual = 5.3479e-09, No Iterations 4
GAMG:  Solving for p, Initial residual = 1.43503e-06, Final residual = 3.89064e-07, No Iterations 1
time step continuity errors : sum local = 1.45525e-07, global = -1.14256e-16, cumulative = 5.21712e-14
smoothSolver:  Solving for nuTilda, Initial residual = 9.71166e-09, Final residual = 9.71166e-09, No Iterations 0
ExecutionTime = 406.28 s  ClockTime = 408 s

forces wings output:
    sum of forces:
        pressure : (3.94345 -13.7532 -2.69068e-19)
        viscous  : (0.106187 0.018193 -9.0968e-21)
        porous   : (0 0 0)
    sum of moments:
        pressure : (0.687662 0.197172 -0.766971)
        viscous  : (-0.000909649 0.00530933 -0.00933311)
        porous   : (0 0 0)

End

