/*---------------------------------------------------------------------------*\
| =========                 |                                                 |
| \\      /  F ield         | OpenFOAM: The Open Source CFD Toolbox           |
|  \\    /   O peration     | Version:  2.3.0                                 |
|   \\  /    A nd           | Web:      www.OpenFOAM.org                      |
|    \\/     M anipulation  |                                                 |
\*---------------------------------------------------------------------------*/
Build  : 2.3.0-f5222ca19ce6
Exec   : simpleFoam -case Runs/flatplate_0/case
Date   : Jan 08 2015
Time   : 14:31:49
Host   : "lordvon-XPS-8300"
PID    : 4209
Case   : Runs/flatplate_0/case
nProcs : 1
sigFpe : Enabling floating point exception trapping (FOAM_SIGFPE).
fileModificationChecking : Monitoring run-time modified files using timeStampMaster
allowSystemOperations : Disallowing user-supplied system call operations

// * * * * * * * * * * * * * * * * * * * * * * * * * * * * * * * * * * * * * //
Create time

Create mesh for time = 0

Reading field p

Reading field U

Reading/calculating face flux field phi

Selecting incompressible transport model Newtonian
Selecting RAS turbulence model SpalartAllmaras
SpalartAllmarasCoeffs
{
    sigmaNut        0.66666;
    kappa           0.41;
    Cb1             0.1355;
    Cb2             0.622;
    Cw2             0.3;
    Cw3             2;
    Cv1             7.1;
    Cv2             5;
}

    Employing Ashford correction
No finite volume options present


SIMPLE: convergence criteria
    field p	 tolerance 1e-12
    field U	 tolerance 1e-12
    field nuTilda	 tolerance 1e-12


Starting time loop

forces wings:
    Not including porosity effects

Time = 1

smoothSolver:  Solving for Ux, Initial residual = 1, Final residual = 0.0315008, No Iterations 4
smoothSolver:  Solving for Uy, Initial residual = 1, Final residual = 0.0307445, No Iterations 4
GAMG:  Solving for p, Initial residual = 1, Final residual = 0.0862826, No Iterations 1
time step continuity errors : sum local = 0.00836214, global = -5.53878e-17, cumulative = -5.53878e-17
smoothSolver:  Solving for nuTilda, Initial residual = 1, Final residual = 0.0182394, No Iterations 2
ExecutionTime = 0.08 s  ClockTime = 0 s

Time = 2

smoothSolver:  Solving for Ux, Initial residual = 0.243956, Final residual = 0.00739739, No Iterations 4
smoothSolver:  Solving for Uy, Initial residual = 0.411926, Final residual = 0.0191867, No Iterations 4
GAMG:  Solving for p, Initial residual = 0.653801, Final residual = 0.0575173, No Iterations 1
time step continuity errors : sum local = 0.00955013, global = 1.22974e-16, cumulative = 6.75865e-17
smoothSolver:  Solving for nuTilda, Initial residual = 0.17721, Final residual = 0.0114213, No Iterations 2
ExecutionTime = 0.09 s  ClockTime = 0 s

Time = 3

smoothSolver:  Solving for Ux, Initial residual = 0.136724, Final residual = 0.00402598, No Iterations 4
smoothSolver:  Solving for Uy, Initial residual = 0.304373, Final residual = 0.0155233, No Iterations 4
GAMG:  Solving for p, Initial residual = 0.44825, Final residual = 0.0421209, No Iterations 1
time step continuity errors : sum local = 0.00895823, global = 2.66283e-16, cumulative = 3.33869e-16
smoothSolver:  Solving for nuTilda, Initial residual = 0.079789, Final residual = 0.00224486, No Iterations 4
ExecutionTime = 0.1 s  ClockTime = 0 s

Time = 4

smoothSolver:  Solving for Ux, Initial residual = 0.0979561, Final residual = 0.0030552, No Iterations 4
smoothSolver:  Solving for Uy, Initial residual = 0.205922, Final residual = 0.0107607, No Iterations 4
GAMG:  Solving for p, Initial residual = 0.329081, Final residual = 0.0134244, No Iterations 2
time step continuity errors : sum local = 0.00329152, global = 4.84939e-16, cumulative = 8.18808e-16
smoothSolver:  Solving for nuTilda, Initial residual = 0.0523411, Final residual = 0.00212985, No Iterations 4
ExecutionTime = 0.12 s  ClockTime = 0 s

Time = 5

smoothSolver:  Solving for Ux, Initial residual = 0.0761351, Final residual = 0.00288147, No Iterations 4
smoothSolver:  Solving for Uy, Initial residual = 0.136055, Final residual = 0.00670612, No Iterations 4
GAMG:  Solving for p, Initial residual = 0.244935, Final residual = 0.0105827, No Iterations 2
time step continuity errors : sum local = 0.00286301, global = 3.34711e-16, cumulative = 1.15352e-15
smoothSolver:  Solving for nuTilda, Initial residual = 0.0402781, Final residual = 0.00183079, No Iterations 4
ExecutionTime = 0.13 s  ClockTime = 0 s

forces wings output:
    sum of forces:
        pressure : (-3.74563e-19 -0.0436236 -5.10341e-36)
        viscous  : (0.477213 2.05617e-06 4.79529e-38)
        porous   : (0 0 0)
    sum of moments:
        pressure : (0.00218118 -1.87281e-20 0.00384117)
        viscous  : (-1.02808e-07 0.0238606 -1.51819e-06)
        porous   : (0 0 0)

Time = 6

smoothSolver:  Solving for Ux, Initial residual = 0.0600144, Final residual = 0.00231753, No Iterations 4
smoothSolver:  Solving for Uy, Initial residual = 0.103813, Final residual = 0.00446531, No Iterations 4
GAMG:  Solving for p, Initial residual = 0.195648, Final residual = 0.00851687, No Iterations 2
time step continuity errors : sum local = 0.00246581, global = 5.05238e-17, cumulative = 1.20404e-15
smoothSolver:  Solving for nuTilda, Initial residual = 0.0326513, Final residual = 0.00150996, No Iterations 4
ExecutionTime = 0.15 s  ClockTime = 0 s

Time = 7

smoothSolver:  Solving for Ux, Initial residual = 0.0449424, Final residual = 0.00155427, No Iterations 4
smoothSolver:  Solving for Uy, Initial residual = 0.0975868, Final residual = 0.00408611, No Iterations 4
GAMG:  Solving for p, Initial residual = 0.163251, Final residual = 0.00829682, No Iterations 2
time step continuity errors : sum local = 0.00253243, global = -4.12349e-17, cumulative = 1.16281e-15
smoothSolver:  Solving for nuTilda, Initial residual = 0.0270242, Final residual = 0.00123332, No Iterations 4
bounding nuTilda, min: -0.000680293 max: 0.331494 average: 0.103839
ExecutionTime = 0.16 s  ClockTime = 0 s

Time = 8

smoothSolver:  Solving for Ux, Initial residual = 0.0335655, Final residual = 0.000991602, No Iterations 4
smoothSolver:  Solving for Uy, Initial residual = 0.102293, Final residual = 0.00460845, No Iterations 4
GAMG:  Solving for p, Initial residual = 0.138641, Final residual = 0.00734835, No Iterations 2
time step continuity errors : sum local = 0.00233257, global = 3.46439e-16, cumulative = 1.50925e-15
smoothSolver:  Solving for nuTilda, Initial residual = 0.0227616, Final residual = 0.0010213, No Iterations 4
bounding nuTilda, min: -0.00140562 max: 0.35068 average: 0.101744
ExecutionTime = 0.17 s  ClockTime = 0 s

Time = 9

smoothSolver:  Solving for Ux, Initial residual = 0.0294046, Final residual = 0.000868335, No Iterations 4
smoothSolver:  Solving for Uy, Initial residual = 0.0940809, Final residual = 0.00457386, No Iterations 4
GAMG:  Solving for p, Initial residual = 0.118772, Final residual = 0.00601334, No Iterations 2
time step continuity errors : sum local = 0.00195728, global = 1.26841e-16, cumulative = 1.63609e-15
smoothSolver:  Solving for nuTilda, Initial residual = 0.0193115, Final residual = 0.000849632, No Iterations 4
bounding nuTilda, min: -0.00426859 max: 0.366962 average: 0.0999044
ExecutionTime = 0.19 s  ClockTime = 0 s

Time = 10

smoothSolver:  Solving for Ux, Initial residual = 0.0254052, Final residual = 0.000785065, No Iterations 4
smoothSolver:  Solving for Uy, Initial residual = 0.076546, Final residual = 0.00397378, No Iterations 4
GAMG:  Solving for p, Initial residual = 0.103727, Final residual = 0.00516519, No Iterations 2
time step continuity errors : sum local = 0.0017146, global = 1.18368e-17, cumulative = 1.64792e-15
smoothSolver:  Solving for nuTilda, Initial residual = 0.0164563, Final residual = 0.000710853, No Iterations 4
bounding nuTilda, min: -0.00724622 max: 0.379845 average: 0.0982668
ExecutionTime = 0.2 s  ClockTime = 1 s

forces wings output:
    sum of forces:
        pressure : (-8.23649e-19 0.384907 -4.6567e-37)
        viscous  : (0.424177 -1.73929e-07 -2.57978e-39)
        porous   : (0 0 0)
    sum of moments:
        pressure : (-0.0192453 -4.11824e-20 0.0951472)
        viscous  : (8.69645e-09 0.0212088 4.81376e-06)
        porous   : (0 0 0)

Time = 11

smoothSolver:  Solving for Ux, Initial residual = 0.0206197, Final residual = 0.000621031, No Iterations 4
smoothSolver:  Solving for Uy, Initial residual = 0.0579018, Final residual = 0.00309261, No Iterations 4
GAMG:  Solving for p, Initial residual = 0.0875613, Final residual = 0.00557443, No Iterations 2
time step continuity errors : sum local = 0.00187393, global = -3.70455e-16, cumulative = 1.27747e-15
smoothSolver:  Solving for nuTilda, Initial residual = 0.0140887, Final residual = 0.000600948, No Iterations 4
bounding nuTilda, min: -0.00759694 max: 0.389563 average: 0.0967947
ExecutionTime = 0.21 s  ClockTime = 1 s

Time = 12

smoothSolver:  Solving for Ux, Initial residual = 0.0166203, Final residual = 0.000486677, No Iterations 4
smoothSolver:  Solving for Uy, Initial residual = 0.04631, Final residual = 0.00217131, No Iterations 4
GAMG:  Solving for p, Initial residual = 0.0749891, Final residual = 0.00504124, No Iterations 2
time step continuity errors : sum local = 0.0017079, global = -3.10446e-16, cumulative = 9.67023e-16
smoothSolver:  Solving for nuTilda, Initial residual = 0.012074, Final residual = 0.000503623, No Iterations 4
bounding nuTilda, min: -0.00766214 max: 0.396586 average: 0.0954558
ExecutionTime = 0.23 s  ClockTime = 1 s

Time = 13

smoothSolver:  Solving for Ux, Initial residual = 0.0142825, Final residual = 0.000450667, No Iterations 4
smoothSolver:  Solving for Uy, Initial residual = 0.0496884, Final residual = 0.00218141, No Iterations 4
GAMG:  Solving for p, Initial residual = 0.0658341, Final residual = 0.00367423, No Iterations 2
time step continuity errors : sum local = 0.00125145, global = 6.82939e-17, cumulative = 1.03532e-15
smoothSolver:  Solving for nuTilda, Initial residual = 0.0103624, Final residual = 0.000421737, No Iterations 4
bounding nuTilda, min: -0.00757484 max: 0.401432 average: 0.0942287
ExecutionTime = 0.24 s  ClockTime = 1 s

Time = 14

smoothSolver:  Solving for Ux, Initial residual = 0.0128465, Final residual = 0.000435136, No Iterations 4
smoothSolver:  Solving for Uy, Initial residual = 0.051441, Final residual = 0.00237053, No Iterations 4
GAMG:  Solving for p, Initial residual = 0.0578218, Final residual = 0.0029806, No Iterations 2
time step continuity errors : sum local = 0.00102006, global = 6.47065e-17, cumulative = 1.10002e-15
smoothSolver:  Solving for nuTilda, Initial residual = 0.00895897, Final residual = 0.000356441, No Iterations 4
bounding nuTilda, min: -0.00738888 max: 0.404565 average: 0.093095
ExecutionTime = 0.26 s  ClockTime = 1 s

Time = 15

smoothSolver:  Solving for Ux, Initial residual = 0.0109066, Final residual = 0.000359826, No Iterations 4
smoothSolver:  Solving for Uy, Initial residual = 0.0478198, Final residual = 0.00238717, No Iterations 4
GAMG:  Solving for p, Initial residual = 0.0503698, Final residual = 0.00264824, No Iterations 2
time step continuity errors : sum local = 0.000910739, global = -8.68832e-17, cumulative = 1.01314e-15
smoothSolver:  Solving for nuTilda, Initial residual = 0.00774642, Final residual = 0.000304961, No Iterations 4
bounding nuTilda, min: -0.0071642 max: 0.406399 average: 0.0920411
ExecutionTime = 0.27 s  ClockTime = 1 s

forces wings output:
    sum of forces:
        pressure : (-1.53132e-18 0.114405 -2.28499e-36)
        viscous  : (0.360834 -7.23169e-06 1.00571e-37)
        porous   : (0 0 0)
    sum of moments:
        pressure : (-0.00572025 -7.65658e-20 -0.0131347)
        viscous  : (3.61585e-07 0.0180417 -3.1175e-06)
        porous   : (0 0 0)

Time = 16

smoothSolver:  Solving for Ux, Initial residual = 0.0091786, Final residual = 0.000286393, No Iterations 4
smoothSolver:  Solving for Uy, Initial residual = 0.0412526, Final residual = 0.00221857, No Iterations 4
GAMG:  Solving for p, Initial residual = 0.0432967, Final residual = 0.00248899, No Iterations 2
time step continuity errors : sum local = 0.000859196, global = 9.69683e-18, cumulative = 1.02284e-15
smoothSolver:  Solving for nuTilda, Initial residual = 0.00668621, Final residual = 0.000266109, No Iterations 4
bounding nuTilda, min: -0.00693449 max: 0.40739 average: 0.0910549
ExecutionTime = 0.28 s  ClockTime = 1 s

Time = 17

smoothSolver:  Solving for Ux, Initial residual = 0.00779871, Final residual = 0.000252485, No Iterations 4
smoothSolver:  Solving for Uy, Initial residual = 0.034349, Final residual = 0.00195501, No Iterations 4
GAMG:  Solving for p, Initial residual = 0.0374152, Final residual = 0.00231921, No Iterations 2
time step continuity errors : sum local = 0.000801909, global = 1.75573e-16, cumulative = 1.19841e-15
smoothSolver:  Solving for nuTilda, Initial residual = 0.0057779, Final residual = 0.000238463, No Iterations 4
bounding nuTilda, min: -0.00671567 max: 0.408367 average: 0.0901302
ExecutionTime = 0.3 s  ClockTime = 1 s

Time = 18

smoothSolver:  Solving for Ux, Initial residual = 0.00651882, Final residual = 0.000227291, No Iterations 4
smoothSolver:  Solving for Uy, Initial residual = 0.031672, Final residual = 0.00176309, No Iterations 4
GAMG:  Solving for p, Initial residual = 0.033424, Final residual = 0.00227037, No Iterations 2
time step continuity errors : sum local = 0.000786223, global = 5.2897e-17, cumulative = 1.25131e-15
smoothSolver:  Solving for nuTilda, Initial residual = 0.00500101, Final residual = 0.000217206, No Iterations 4
bounding nuTilda, min: -0.00651247 max: 0.40886 average: 0.0892585
ExecutionTime = 0.31 s  ClockTime = 1 s

Time = 19

smoothSolver:  Solving for Ux, Initial residual = 0.00541217, Final residual = 0.000198338, No Iterations 4
smoothSolver:  Solving for Uy, Initial residual = 0.029205, Final residual = 0.00158554, No Iterations 4
GAMG:  Solving for p, Initial residual = 0.0292156, Final residual = 0.00201133, No Iterations 2
time step continuity errors : sum local = 0.000699329, global = 2.16798e-16, cumulative = 1.46811e-15
smoothSolver:  Solving for nuTilda, Initial residual = 0.00434515, Final residual = 0.000199624, No Iterations 4
bounding nuTilda, min: -0.00632434 max: 0.409003 average: 0.0884344
ExecutionTime = 0.33 s  ClockTime = 1 s

Time = 20

smoothSolver:  Solving for Ux, Initial residual = 0.0048384, Final residual = 0.00018597, No Iterations 4
smoothSolver:  Solving for Uy, Initial residual = 0.0278249, Final residual = 0.00143458, No Iterations 4
GAMG:  Solving for p, Initial residual = 0.0259937, Final residual = 0.00187794, No Iterations 2
time step continuity errors : sum local = 0.000654836, global = 7.32243e-17, cumulative = 1.54133e-15
smoothSolver:  Solving for nuTilda, Initial residual = 0.00380426, Final residual = 0.000184605, No Iterations 4
bounding nuTilda, min: -0.00614947 max: 0.408922 average: 0.087654
ExecutionTime = 0.34 s  ClockTime = 1 s

forces wings output:
    sum of forces:
        pressure : (-1.39278e-18 0.387897 -3.57283e-36)
        viscous  : (0.313809 1.48815e-05 9.8941e-38)
        porous   : (0 0 0)
    sum of moments:
        pressure : (-0.0193948 -6.9639e-20 0.0857088)
        viscous  : (-7.44077e-07 0.0156905 3.33019e-06)
        porous   : (0 0 0)

Time = 21

smoothSolver:  Solving for Ux, Initial residual = 0.00474715, Final residual = 0.000212634, No Iterations 4
smoothSolver:  Solving for Uy, Initial residual = 0.029983, Final residual = 0.00158096, No Iterations 4
GAMG:  Solving for p, Initial residual = 0.0226241, Final residual = 0.0015171, No Iterations 2
time step continuity errors : sum local = 0.000529914, global = 1.83904e-16, cumulative = 1.72523e-15
smoothSolver:  Solving for nuTilda, Initial residual = 0.00337189, Final residual = 0.000171247, No Iterations 4
bounding nuTilda, min: -0.00598618 max: 0.408737 average: 0.0869146
ExecutionTime = 0.36 s  ClockTime = 1 s

Time = 22

smoothSolver:  Solving for Ux, Initial residual = 0.00433636, Final residual = 0.000210914, No Iterations 4
smoothSolver:  Solving for Uy, Initial residual = 0.0300116, Final residual = 0.00169805, No Iterations 4
GAMG:  Solving for p, Initial residual = 0.0197788, Final residual = 0.00158706, No Iterations 2
time step continuity errors : sum local = 0.000553834, global = -4.87207e-17, cumulative = 1.67651e-15
smoothSolver:  Solving for nuTilda, Initial residual = 0.00301268, Final residual = 0.000159592, No Iterations 4
bounding nuTilda, min: -0.00583407 max: 0.408532 average: 0.0862118
ExecutionTime = 0.37 s  ClockTime = 1 s

Time = 23

smoothSolver:  Solving for Ux, Initial residual = 0.003691, Final residual = 0.000179872, No Iterations 4
smoothSolver:  Solving for Uy, Initial residual = 0.0252722, Final residual = 0.00154054, No Iterations 4
GAMG:  Solving for p, Initial residual = 0.0171373, Final residual = 0.00155099, No Iterations 2
time step continuity errors : sum local = 0.000540345, global = -3.08808e-17, cumulative = 1.64563e-15
smoothSolver:  Solving for nuTilda, Initial residual = 0.0027189, Final residual = 0.000149571, No Iterations 4
bounding nuTilda, min: -0.00569257 max: 0.408352 average: 0.0855427
ExecutionTime = 0.38 s  ClockTime = 1 s

Time = 24

smoothSolver:  Solving for Ux, Initial residual = 0.00309791, Final residual = 0.000146164, No Iterations 4
smoothSolver:  Solving for Uy, Initial residual = 0.019477, Final residual = 0.00113367, No Iterations 4
GAMG:  Solving for p, Initial residual = 0.0153015, Final residual = 0.000771326, No Iterations 3
time step continuity errors : sum local = 0.000268547, global = 1.0537e-16, cumulative = 1.751e-15
smoothSolver:  Solving for nuTilda, Initial residual = 0.00248849, Final residual = 0.000140578, No Iterations 4
bounding nuTilda, min: -0.00556207 max: 0.408216 average: 0.0849048
ExecutionTime = 0.4 s  ClockTime = 1 s

Time = 25

smoothSolver:  Solving for Ux, Initial residual = 0.00283609, Final residual = 0.000136278, No Iterations 4
smoothSolver:  Solving for Uy, Initial residual = 0.0220198, Final residual = 0.00106038, No Iterations 4
GAMG:  Solving for p, Initial residual = 0.0139735, Final residual = 0.00112677, No Iterations 2
time step continuity errors : sum local = 0.000391858, global = 1.23584e-16, cumulative = 1.87459e-15
smoothSolver:  Solving for nuTilda, Initial residual = 0.00230818, Final residual = 0.000132179, No Iterations 4
bounding nuTilda, min: -0.00544191 max: 0.408099 average: 0.0842964
ExecutionTime = 0.41 s  ClockTime = 1 s

forces wings output:
    sum of forces:
        pressure : (-2.11606e-18 0.19189 -3.13055e-36)
        viscous  : (0.290086 -1.89702e-06 1.2818e-37)
        porous   : (0 0 0)
    sum of moments:
        pressure : (-0.0095945 -1.05803e-19 -0.0186872)
        viscous  : (9.48508e-08 0.0145043 -2.97178e-06)
        porous   : (0 0 0)

Time = 26

smoothSolver:  Solving for Ux, Initial residual = 0.00266903, Final residual = 0.000138714, No Iterations 4
smoothSolver:  Solving for Uy, Initial residual = 0.0221398, Final residual = 0.0011322, No Iterations 4
GAMG:  Solving for p, Initial residual = 0.0128427, Final residual = 0.0011487, No Iterations 2
time step continuity errors : sum local = 0.000399565, global = -9.3096e-17, cumulative = 1.78149e-15
smoothSolver:  Solving for nuTilda, Initial residual = 0.00215881, Final residual = 0.000124149, No Iterations 4
bounding nuTilda, min: -0.00533059 max: 0.407985 average: 0.0837145
ExecutionTime = 0.43 s  ClockTime = 1 s

Time = 27

smoothSolver:  Solving for Ux, Initial residual = 0.00250726, Final residual = 0.000121783, No Iterations 4
smoothSolver:  Solving for Uy, Initial residual = 0.0186406, Final residual = 0.00101201, No Iterations 4
GAMG:  Solving for p, Initial residual = 0.0107289, Final residual = 0.000500791, No Iterations 3
time step continuity errors : sum local = 0.000174947, global = -5.88058e-17, cumulative = 1.72268e-15
smoothSolver:  Solving for nuTilda, Initial residual = 0.00203255, Final residual = 0.000116525, No Iterations 4
bounding nuTilda, min: -0.0052273 max: 0.407853 average: 0.0831574
ExecutionTime = 0.45 s  ClockTime = 1 s

Time = 28

smoothSolver:  Solving for Ux, Initial residual = 0.00240383, Final residual = 0.000109186, No Iterations 4
smoothSolver:  Solving for Uy, Initial residual = 0.0144124, Final residual = 0.000788228, No Iterations 4
GAMG:  Solving for p, Initial residual = 0.00940485, Final residual = 0.000465251, No Iterations 3
time step continuity errors : sum local = 0.000162928, global = 1.22504e-16, cumulative = 1.84519e-15
smoothSolver:  Solving for nuTilda, Initial residual = 0.00190968, Final residual = 0.000109549, No Iterations 4
bounding nuTilda, min: -0.00513033 max: 0.407702 average: 0.0826236
ExecutionTime = 0.46 s  ClockTime = 1 s

Time = 29

smoothSolver:  Solving for Ux, Initial residual = 0.00231712, Final residual = 0.00010677, No Iterations 4
smoothSolver:  Solving for Uy, Initial residual = 0.0169189, Final residual = 0.00085332, No Iterations 4
GAMG:  Solving for p, Initial residual = 0.0088062, Final residual = 0.00078327, No Iterations 2
time step continuity errors : sum local = 0.000273564, global = 2.00857e-16, cumulative = 2.04604e-15
smoothSolver:  Solving for nuTilda, Initial residual = 0.00179815, Final residual = 0.000103531, No Iterations 4
bounding nuTilda, min: -0.00503955 max: 0.40755 average: 0.0821119
ExecutionTime = 0.48 s  ClockTime = 1 s

Time = 30

smoothSolver:  Solving for Ux, Initial residual = 0.00204275, Final residual = 9.73973e-05, No Iterations 4
smoothSolver:  Solving for Uy, Initial residual = 0.0168154, Final residual = 0.000864349, No Iterations 4
GAMG:  Solving for p, Initial residual = 0.00803805, Final residual = 0.000354369, No Iterations 3
time step continuity errors : sum local = 0.000124601, global = -1.2138e-16, cumulative = 1.92467e-15
smoothSolver:  Solving for nuTilda, Initial residual = 0.00169379, Final residual = 9.8022e-05, No Iterations 4
bounding nuTilda, min: -0.00495489 max: 0.407425 average: 0.0816207
ExecutionTime = 0.49 s  ClockTime = 1 s

forces wings output:
    sum of forces:
        pressure : (-2.25009e-18 0.351795 -3.80073e-36)
        viscous  : (0.276134 5.92718e-06 2.20529e-37)
        porous   : (0 0 0)
    sum of moments:
        pressure : (-0.0175898 -1.12504e-19 0.0430589)
        viscous  : (-2.96359e-07 0.0138067 -4.20549e-06)
        porous   : (0 0 0)

Time = 31

smoothSolver:  Solving for Ux, Initial residual = 0.00182842, Final residual = 8.8482e-05, No Iterations 4
smoothSolver:  Solving for Uy, Initial residual = 0.0141779, Final residual = 0.000788304, No Iterations 4
GAMG:  Solving for p, Initial residual = 0.00684298, Final residual = 0.000341779, No Iterations 3
time step continuity errors : sum local = 0.000120138, global = -1.17933e-16, cumulative = 1.80673e-15
smoothSolver:  Solving for nuTilda, Initial residual = 0.00159006, Final residual = 9.29077e-05, No Iterations 4
bounding nuTilda, min: -0.00487609 max: 0.40736 average: 0.0811481
ExecutionTime = 0.51 s  ClockTime = 1 s

Time = 32

smoothSolver:  Solving for Ux, Initial residual = 0.0017053, Final residual = 8.01978e-05, No Iterations 4
smoothSolver:  Solving for Uy, Initial residual = 0.010354, Final residual = 0.000579016, No Iterations 4
GAMG:  Solving for p, Initial residual = 0.00627118, Final residual = 0.000343404, No Iterations 3
time step continuity errors : sum local = 0.00012054, global = 2.14904e-17, cumulative = 1.82822e-15
smoothSolver:  Solving for nuTilda, Initial residual = 0.00149414, Final residual = 8.8004e-05, No Iterations 4
bounding nuTilda, min: -0.0048026 max: 0.407375 average: 0.0806931
ExecutionTime = 0.52 s  ClockTime = 1 s

Time = 33

smoothSolver:  Solving for Ux, Initial residual = 0.00172824, Final residual = 8.27407e-05, No Iterations 4
smoothSolver:  Solving for Uy, Initial residual = 0.010992, Final residual = 0.000565006, No Iterations 4
GAMG:  Solving for p, Initial residual = 0.00583652, Final residual = 0.000541318, No Iterations 2
time step continuity errors : sum local = 0.000189077, global = 2.04699e-16, cumulative = 2.03292e-15
smoothSolver:  Solving for nuTilda, Initial residual = 0.0014137, Final residual = 8.35882e-05, No Iterations 4
bounding nuTilda, min: -0.00473375 max: 0.407461 average: 0.0802548
ExecutionTime = 0.53 s  ClockTime = 1 s

Time = 34

smoothSolver:  Solving for Ux, Initial residual = 0.001714, Final residual = 8.48349e-05, No Iterations 4
smoothSolver:  Solving for Uy, Initial residual = 0.0128034, Final residual = 0.000682327, No Iterations 4
GAMG:  Solving for p, Initial residual = 0.00527896, Final residual = 0.000421772, No Iterations 2
time step continuity errors : sum local = 0.000147444, global = 3.88739e-17, cumulative = 2.07179e-15
smoothSolver:  Solving for nuTilda, Initial residual = 0.00134345, Final residual = 7.94742e-05, No Iterations 4
bounding nuTilda, min: -0.00466923 max: 0.407593 average: 0.0798328
ExecutionTime = 0.55 s  ClockTime = 1 s

Time = 35

smoothSolver:  Solving for Ux, Initial residual = 0.00158091, Final residual = 7.88736e-05, No Iterations 4
smoothSolver:  Solving for Uy, Initial residual = 0.0122575, Final residual = 0.000685475, No Iterations 4
GAMG:  Solving for p, Initial residual = 0.00475735, Final residual = 0.000404062, No Iterations 2
time step continuity errors : sum local = 0.000141202, global = -4.12829e-17, cumulative = 2.03051e-15
smoothSolver:  Solving for nuTilda, Initial residual = 0.00127789, Final residual = 7.56628e-05, No Iterations 4
bounding nuTilda, min: -0.00460852 max: 0.407734 average: 0.079427
ExecutionTime = 0.56 s  ClockTime = 1 s

forces wings output:
    sum of forces:
        pressure : (-6.10669e-19 0.176708 -2.98703e-36)
        viscous  : (0.266867 8.00016e-06 1.69415e-37)
        porous   : (0 0 0)
    sum of moments:
        pressure : (-0.00883541 -3.05335e-20 0.00697059)
        viscous  : (-4.00008e-07 0.0133434 7.63153e-07)
        porous   : (0 0 0)

Time = 36

smoothSolver:  Solving for Ux, Initial residual = 0.00137071, Final residual = 6.7141e-05, No Iterations 4
smoothSolver:  Solving for Uy, Initial residual = 0.0098884, Final residual = 0.000586316, No Iterations 4
GAMG:  Solving for p, Initial residual = 0.00432249, Final residual = 0.000207066, No Iterations 3
time step continuity errors : sum local = 7.27744e-05, global = 3.65695e-17, cumulative = 2.06708e-15
smoothSolver:  Solving for nuTilda, Initial residual = 0.0012138, Final residual = 7.21165e-05, No Iterations 4
bounding nuTilda, min: -0.00455092 max: 0.407851 average: 0.0790353
ExecutionTime = 0.58 s  ClockTime = 1 s

Time = 37

smoothSolver:  Solving for Ux, Initial residual = 0.00119571, Final residual = 5.43988e-05, No Iterations 4
smoothSolver:  Solving for Uy, Initial residual = 0.00744055, Final residual = 0.000440331, No Iterations 4
GAMG:  Solving for p, Initial residual = 0.00373651, Final residual = 0.00033368, No Iterations 2
time step continuity errors : sum local = 0.00011679, global = 2.41288e-16, cumulative = 2.30837e-15
smoothSolver:  Solving for nuTilda, Initial residual = 0.00114836, Final residual = 6.88022e-05, No Iterations 4
bounding nuTilda, min: -0.00449643 max: 0.40793 average: 0.078657
ExecutionTime = 0.59 s  ClockTime = 1 s

Time = 38

smoothSolver:  Solving for Ux, Initial residual = 0.00111281, Final residual = 5.06063e-05, No Iterations 4
smoothSolver:  Solving for Uy, Initial residual = 0.00711006, Final residual = 0.000402439, No Iterations 4
GAMG:  Solving for p, Initial residual = 0.00342472, Final residual = 0.000265067, No Iterations 2
time step continuity errors : sum local = 9.30454e-05, global = 1.29955e-16, cumulative = 2.43832e-15
smoothSolver:  Solving for nuTilda, Initial residual = 0.00108625, Final residual = 6.5584e-05, No Iterations 4
bounding nuTilda, min: -0.00444471 max: 0.40797 average: 0.0782913
ExecutionTime = 0.6 s  ClockTime = 1 s

Time = 39

smoothSolver:  Solving for Ux, Initial residual = 0.00105802, Final residual = 4.68584e-05, No Iterations 4
smoothSolver:  Solving for Uy, Initial residual = 0.00675049, Final residual = 0.000374299, No Iterations 4
GAMG:  Solving for p, Initial residual = 0.00321124, Final residual = 0.000245227, No Iterations 2
time step continuity errors : sum local = 8.6221e-05, global = 1.88007e-16, cumulative = 2.62633e-15
smoothSolver:  Solving for nuTilda, Initial residual = 0.00102746, Final residual = 6.25687e-05, No Iterations 4
bounding nuTilda, min: -0.00439583 max: 0.407982 average: 0.0779375
ExecutionTime = 0.62 s  ClockTime = 1 s

Time = 40

smoothSolver:  Solving for Ux, Initial residual = 0.000982849, Final residual = 4.27536e-05, No Iterations 4
smoothSolver:  Solving for Uy, Initial residual = 0.00595937, Final residual = 0.000333413, No Iterations 4
GAMG:  Solving for p, Initial residual = 0.00293102, Final residual = 0.000251886, No Iterations 2
time step continuity errors : sum local = 8.85122e-05, global = -2.10967e-16, cumulative = 2.41536e-15
smoothSolver:  Solving for nuTilda, Initial residual = 0.000975028, Final residual = 5.97895e-05, No Iterations 4
bounding nuTilda, min: -0.00434944 max: 0.407979 average: 0.0775953
ExecutionTime = 0.63 s  ClockTime = 1 s

forces wings output:
    sum of forces:
        pressure : (-2.02624e-18 0.230005 -2.20554e-36)
        viscous  : (0.26108 4.25061e-06 8.2677e-38)
        porous   : (0 0 0)
    sum of moments:
        pressure : (-0.0115003 -1.01312e-19 0.00491628)
        viscous  : (-2.12531e-07 0.013054 -4.49957e-06)
        porous   : (0 0 0)

Time = 41

smoothSolver:  Solving for Ux, Initial residual = 0.000921563, Final residual = 3.94385e-05, No Iterations 4
smoothSolver:  Solving for Uy, Initial residual = 0.00515211, Final residual = 0.000296954, No Iterations 4
GAMG:  Solving for p, Initial residual = 0.0025806, Final residual = 0.000233784, No Iterations 2
time step continuity errors : sum local = 8.21361e-05, global = -1.07864e-16, cumulative = 2.3075e-15
smoothSolver:  Solving for nuTilda, Initial residual = 0.000928266, Final residual = 5.71398e-05, No Iterations 4
bounding nuTilda, min: -0.00430551 max: 0.407974 average: 0.0772636
ExecutionTime = 0.65 s  ClockTime = 1 s

Time = 42

smoothSolver:  Solving for Ux, Initial residual = 0.000894573, Final residual = 3.996e-05, No Iterations 4
smoothSolver:  Solving for Uy, Initial residual = 0.00502197, Final residual = 0.000279519, No Iterations 4
GAMG:  Solving for p, Initial residual = 0.00229428, Final residual = 0.000191408, No Iterations 2
time step continuity errors : sum local = 6.72733e-05, global = -1.23257e-16, cumulative = 2.18424e-15
smoothSolver:  Solving for nuTilda, Initial residual = 0.000887084, Final residual = 5.46585e-05, No Iterations 4
bounding nuTilda, min: -0.00426364 max: 0.407974 average: 0.0769422
ExecutionTime = 0.66 s  ClockTime = 1 s

Time = 43

smoothSolver:  Solving for Ux, Initial residual = 0.000855119, Final residual = 3.91503e-05, No Iterations 4
smoothSolver:  Solving for Uy, Initial residual = 0.00510101, Final residual = 0.000287886, No Iterations 4
GAMG:  Solving for p, Initial residual = 0.00213461, Final residual = 0.000169026, No Iterations 2
time step continuity errors : sum local = 5.9336e-05, global = 2.66597e-17, cumulative = 2.2109e-15
smoothSolver:  Solving for nuTilda, Initial residual = 0.000846106, Final residual = 5.2198e-05, No Iterations 4
bounding nuTilda, min: -0.00422386 max: 0.407979 average: 0.0766304
ExecutionTime = 0.67 s  ClockTime = 1 s

Time = 44

smoothSolver:  Solving for Ux, Initial residual = 0.000774668, Final residual = 3.59667e-05, No Iterations 4
smoothSolver:  Solving for Uy, Initial residual = 0.00470855, Final residual = 0.000271654, No Iterations 4
GAMG:  Solving for p, Initial residual = 0.00200735, Final residual = 0.00017557, No Iterations 2
time step continuity errors : sum local = 6.14871e-05, global = 1.33214e-16, cumulative = 2.34412e-15
smoothSolver:  Solving for nuTilda, Initial residual = 0.000805628, Final residual = 4.97845e-05, No Iterations 4
bounding nuTilda, min: -0.00418581 max: 0.407988 average: 0.076328
ExecutionTime = 0.69 s  ClockTime = 1 s

Time = 45

smoothSolver:  Solving for Ux, Initial residual = 0.000698474, Final residual = 3.17371e-05, No Iterations 4
smoothSolver:  Solving for Uy, Initial residual = 0.00391677, Final residual = 0.000229459, No Iterations 4
GAMG:  Solving for p, Initial residual = 0.00183406, Final residual = 0.000173556, No Iterations 2
time step continuity errors : sum local = 6.07604e-05, global = 2.75532e-16, cumulative = 2.61965e-15
smoothSolver:  Solving for nuTilda, Initial residual = 0.000765729, Final residual = 4.74456e-05, No Iterations 4
bounding nuTilda, min: -0.00414957 max: 0.407995 average: 0.0760344
ExecutionTime = 0.7 s  ClockTime = 1 s

forces wings output:
    sum of forces:
        pressure : (-6.47871e-19 0.187448 -2.02852e-36)
        viscous  : (0.257058 1.2343e-05 7.77934e-38)
        porous   : (0 0 0)
    sum of moments:
        pressure : (-0.0093724 -3.23936e-20 0.011748)
        viscous  : (-6.17151e-07 0.0128529 -6.62352e-07)
        porous   : (0 0 0)

Time = 46

smoothSolver:  Solving for Ux, Initial residual = 0.000674875, Final residual = 3.05825e-05, No Iterations 4
smoothSolver:  Solving for Uy, Initial residual = 0.00343693, Final residual = 0.000194474, No Iterations 4
GAMG:  Solving for p, Initial residual = 0.00165949, Final residual = 0.000157764, No Iterations 2
time step continuity errors : sum local = 5.53347e-05, global = 2.08555e-17, cumulative = 2.6405e-15
smoothSolver:  Solving for nuTilda, Initial residual = 0.000728754, Final residual = 4.52496e-05, No Iterations 4
bounding nuTilda, min: -0.00411491 max: 0.407999 average: 0.0757494
ExecutionTime = 0.71 s  ClockTime = 1 s

Time = 47

smoothSolver:  Solving for Ux, Initial residual = 0.000649003, Final residual = 2.916e-05, No Iterations 4
smoothSolver:  Solving for Uy, Initial residual = 0.00333418, Final residual = 0.000181127, No Iterations 4
GAMG:  Solving for p, Initial residual = 0.00154013, Final residual = 0.000136857, No Iterations 2
time step continuity errors : sum local = 4.81912e-05, global = -7.96218e-17, cumulative = 2.56088e-15
smoothSolver:  Solving for nuTilda, Initial residual = 0.000693844, Final residual = 4.31989e-05, No Iterations 4
bounding nuTilda, min: -0.00408196 max: 0.408 average: 0.0754739
ExecutionTime = 0.73 s  ClockTime = 1 s

Time = 48

smoothSolver:  Solving for Ux, Initial residual = 0.000607434, Final residual = 2.71401e-05, No Iterations 4
smoothSolver:  Solving for Uy, Initial residual = 0.00316119, Final residual = 0.000171508, No Iterations 4
GAMG:  Solving for p, Initial residual = 0.00141555, Final residual = 0.000125666, No Iterations 2
time step continuity errors : sum local = 4.44234e-05, global = -7.63444e-17, cumulative = 2.48454e-15
smoothSolver:  Solving for nuTilda, Initial residual = 0.000661463, Final residual = 4.12307e-05, No Iterations 4
bounding nuTilda, min: -0.00405052 max: 0.407999 average: 0.075206
ExecutionTime = 0.74 s  ClockTime = 1 s

Time = 49

smoothSolver:  Solving for Ux, Initial residual = 0.000568761, Final residual = 2.51399e-05, No Iterations 4
smoothSolver:  Solving for Uy, Initial residual = 0.00283169, Final residual = 0.000158277, No Iterations 4
GAMG:  Solving for p, Initial residual = 0.00129814, Final residual = 0.000120148, No Iterations 2
time step continuity errors : sum local = 4.25922e-05, global = -1.63797e-16, cumulative = 2.32074e-15
smoothSolver:  Solving for nuTilda, Initial residual = 0.00063147, Final residual = 3.93606e-05, No Iterations 4
bounding nuTilda, min: -0.00402025 max: 0.407997 average: 0.0749455
ExecutionTime = 0.76 s  ClockTime = 1 s

Time = 50

smoothSolver:  Solving for Ux, Initial residual = 0.000548494, Final residual = 2.4795e-05, No Iterations 4
smoothSolver:  Solving for Uy, Initial residual = 0.00255905, Final residual = 0.000146364, No Iterations 4
GAMG:  Solving for p, Initial residual = 0.0011612, Final residual = 0.000107299, No Iterations 2
time step continuity errors : sum local = 3.81759e-05, global = -2.04984e-16, cumulative = 2.11576e-15
smoothSolver:  Solving for nuTilda, Initial residual = 0.000602962, Final residual = 3.76063e-05, No Iterations 4
bounding nuTilda, min: -0.00399136 max: 0.407996 average: 0.0746918
ExecutionTime = 0.79 s  ClockTime = 1 s

forces wings output:
    sum of forces:
        pressure : (-1.57164e-18 0.228263 -2.32183e-36)
        viscous  : (0.253843 1.16228e-05 9.70304e-38)
        porous   : (0 0 0)
    sum of moments:
        pressure : (-0.0114132 -7.85821e-20 0.00901235)
        viscous  : (-5.81139e-07 0.0126922 -4.35855e-06)
        porous   : (0 0 0)

Time = 51

smoothSolver:  Solving for Ux, Initial residual = 0.000519348, Final residual = 2.39473e-05, No Iterations 4
smoothSolver:  Solving for Uy, Initial residual = 0.00257692, Final residual = 0.000142671, No Iterations 4
GAMG:  Solving for p, Initial residual = 0.00105442, Final residual = 0.000100022, No Iterations 2
time step continuity errors : sum local = 3.56103e-05, global = -7.4475e-17, cumulative = 2.04128e-15
smoothSolver:  Solving for nuTilda, Initial residual = 0.000575754, Final residual = 3.59344e-05, No Iterations 4
bounding nuTilda, min: -0.00396378 max: 0.407996 average: 0.074445
ExecutionTime = 0.81 s  ClockTime = 1 s

Time = 52

smoothSolver:  Solving for Ux, Initial residual = 0.000473492, Final residual = 2.16973e-05, No Iterations 4
smoothSolver:  Solving for Uy, Initial residual = 0.00253029, Final residual = 0.000137143, No Iterations 4
GAMG:  Solving for p, Initial residual = 0.00101187, Final residual = 9.95116e-05, No Iterations 2
time step continuity errors : sum local = 3.53431e-05, global = -1.66713e-17, cumulative = 2.02461e-15
smoothSolver:  Solving for nuTilda, Initial residual = 0.000549539, Final residual = 3.43411e-05, No Iterations 4
bounding nuTilda, min: -0.00393733 max: 0.407996 average: 0.0742047
ExecutionTime = 0.82 s  ClockTime = 1 s

Time = 53

smoothSolver:  Solving for Ux, Initial residual = 0.000435605, Final residual = 1.95445e-05, No Iterations 4
smoothSolver:  Solving for Uy, Initial residual = 0.00228972, Final residual = 0.000126681, No Iterations 4
GAMG:  Solving for p, Initial residual = 0.000985464, Final residual = 5.27139e-05, No Iterations 3
time step continuity errors : sum local = 1.89832e-05, global = -9.26369e-17, cumulative = 1.93197e-15
smoothSolver:  Solving for nuTilda, Initial residual = 0.000525077, Final residual = 3.28463e-05, No Iterations 4
bounding nuTilda, min: -0.00391198 max: 0.407996 average: 0.073971
ExecutionTime = 0.84 s  ClockTime = 1 s

Time = 54

smoothSolver:  Solving for Ux, Initial residual = 0.000431904, Final residual = 1.98124e-05, No Iterations 4
smoothSolver:  Solving for Uy, Initial residual = 0.00201773, Final residual = 0.000112278, No Iterations 4
GAMG:  Solving for p, Initial residual = 0.00087753, Final residual = 8.09492e-05, No Iterations 2
time step continuity errors : sum local = 2.87219e-05, global = -1.05076e-17, cumulative = 1.92147e-15
smoothSolver:  Solving for nuTilda, Initial residual = 0.000502188, Final residual = 3.1434e-05, No Iterations 4
bounding nuTilda, min: -0.00388758 max: 0.407996 average: 0.0737443
ExecutionTime = 0.85 s  ClockTime = 1 s

Time = 55

smoothSolver:  Solving for Ux, Initial residual = 0.000412974, Final residual = 1.90523e-05, No Iterations 4
smoothSolver:  Solving for Uy, Initial residual = 0.00189998, Final residual = 0.000104154, No Iterations 4
GAMG:  Solving for p, Initial residual = 0.000793393, Final residual = 7.74637e-05, No Iterations 2
time step continuity errors : sum local = 2.74863e-05, global = -9.0351e-17, cumulative = 1.83112e-15
smoothSolver:  Solving for nuTilda, Initial residual = 0.000480939, Final residual = 3.00918e-05, No Iterations 4
bounding nuTilda, min: -0.00386414 max: 0.407994 average: 0.073523
ExecutionTime = 0.87 s  ClockTime = 1 s

forces wings output:
    sum of forces:
        pressure : (-9.52824e-19 0.202433 -2.01388e-36)
        viscous  : (0.251414 1.26094e-05 8.34041e-38)
        porous   : (0 0 0)
    sum of moments:
        pressure : (-0.0101216 -4.76412e-20 0.0082597)
        viscous  : (-6.30469e-07 0.0125707 -2.55342e-06)
        porous   : (0 0 0)

Time = 56

smoothSolver:  Solving for Ux, Initial residual = 0.000386239, Final residual = 1.76876e-05, No Iterations 4
smoothSolver:  Solving for Uy, Initial residual = 0.00186111, Final residual = 0.000100972, No Iterations 4
GAMG:  Solving for p, Initial residual = 0.000732554, Final residual = 6.97658e-05, No Iterations 2
time step continuity errors : sum local = 2.4867e-05, global = 2.09561e-16, cumulative = 2.04068e-15
smoothSolver:  Solving for nuTilda, Initial residual = 0.000460781, Final residual = 2.87988e-05, No Iterations 4
bounding nuTilda, min: -0.00384157 max: 0.407991 average: 0.0733074
ExecutionTime = 0.88 s  ClockTime = 1 s

Time = 57

smoothSolver:  Solving for Ux, Initial residual = 0.000368777, Final residual = 1.69117e-05, No Iterations 4
smoothSolver:  Solving for Uy, Initial residual = 0.00174913, Final residual = 9.62821e-05, No Iterations 4
GAMG:  Solving for p, Initial residual = 0.000707056, Final residual = 6.30169e-05, No Iterations 2
time step continuity errors : sum local = 2.26011e-05, global = -3.86095e-17, cumulative = 2.00207e-15
smoothSolver:  Solving for nuTilda, Initial residual = 0.000441819, Final residual = 2.75699e-05, No Iterations 4
bounding nuTilda, min: -0.00381983 max: 0.407988 average: 0.0730975
ExecutionTime = 0.9 s  ClockTime = 1 s

Time = 58

smoothSolver:  Solving for Ux, Initial residual = 0.000351068, Final residual = 1.62414e-05, No Iterations 4
smoothSolver:  Solving for Uy, Initial residual = 0.00155857, Final residual = 8.89191e-05, No Iterations 4
GAMG:  Solving for p, Initial residual = 0.00066358, Final residual = 6.15923e-05, No Iterations 2
time step continuity errors : sum local = 2.21891e-05, global = -1.09609e-17, cumulative = 1.99111e-15
smoothSolver:  Solving for nuTilda, Initial residual = 0.00042377, Final residual = 2.63974e-05, No Iterations 4
bounding nuTilda, min: -0.0037989 max: 0.407984 average: 0.0728933
ExecutionTime = 0.91 s  ClockTime = 1 s

Time = 59

smoothSolver:  Solving for Ux, Initial residual = 0.000326925, Final residual = 1.52991e-05, No Iterations 4
smoothSolver:  Solving for Uy, Initial residual = 0.00147708, Final residual = 8.23761e-05, No Iterations 4
GAMG:  Solving for p, Initial residual = 0.000606759, Final residual = 6.01883e-05, No Iterations 2
time step continuity errors : sum local = 2.17713e-05, global = -1.78903e-17, cumulative = 1.97322e-15
smoothSolver:  Solving for nuTilda, Initial residual = 0.000406486, Final residual = 2.52728e-05, No Iterations 4
bounding nuTilda, min: -0.00377872 max: 0.407982 average: 0.0726947
ExecutionTime = 0.93 s  ClockTime = 1 s

Time = 60

smoothSolver:  Solving for Ux, Initial residual = 0.00030205, Final residual = 1.39369e-05, No Iterations 4
smoothSolver:  Solving for Uy, Initial residual = 0.00146015, Final residual = 7.79788e-05, No Iterations 4
GAMG:  Solving for p, Initial residual = 0.000570778, Final residual = 5.5762e-05, No Iterations 2
time step continuity errors : sum local = 2.02646e-05, global = -2.12408e-16, cumulative = 1.76081e-15
smoothSolver:  Solving for nuTilda, Initial residual = 0.000390043, Final residual = 2.41967e-05, No Iterations 4
bounding nuTilda, min: -0.00375929 max: 0.40798 average: 0.0725012
ExecutionTime = 0.94 s  ClockTime = 1 s

forces wings output:
    sum of forces:
        pressure : (-1.49746e-18 0.234786 -1.96613e-36)
        viscous  : (0.249913 1.24435e-05 7.90249e-38)
        porous   : (0 0 0)
    sum of moments:
        pressure : (-0.0117393 -7.4873e-20 0.00633939)
        viscous  : (-6.22173e-07 0.0124957 -4.04562e-06)
        porous   : (0 0 0)

Time = 61

smoothSolver:  Solving for Ux, Initial residual = 0.00028567, Final residual = 1.3068e-05, No Iterations 4
smoothSolver:  Solving for Uy, Initial residual = 0.00138127, Final residual = 7.42994e-05, No Iterations 4
GAMG:  Solving for p, Initial residual = 0.000550841, Final residual = 5.36045e-05, No Iterations 2
time step continuity errors : sum local = 1.95027e-05, global = -2.27371e-16, cumulative = 1.53344e-15
smoothSolver:  Solving for nuTilda, Initial residual = 0.000374095, Final residual = 2.31746e-05, No Iterations 4
bounding nuTilda, min: -0.00374058 max: 0.40798 average: 0.0723129
ExecutionTime = 0.95 s  ClockTime = 1 s

Time = 62

smoothSolver:  Solving for Ux, Initial residual = 0.000280356, Final residual = 1.28755e-05, No Iterations 4
smoothSolver:  Solving for Uy, Initial residual = 0.00126886, Final residual = 7.07108e-05, No Iterations 4
GAMG:  Solving for p, Initial residual = 0.000517283, Final residual = 3.02e-05, No Iterations 3
time step continuity errors : sum local = 1.07231e-05, global = -5.05436e-17, cumulative = 1.48289e-15
smoothSolver:  Solving for nuTilda, Initial residual = 0.000358868, Final residual = 2.22085e-05, No Iterations 4
bounding nuTilda, min: -0.00372257 max: 0.407979 average: 0.0721301
ExecutionTime = 0.97 s  ClockTime = 1 s

Time = 63

smoothSolver:  Solving for Ux, Initial residual = 0.000275205, Final residual = 1.29238e-05, No Iterations 4
smoothSolver:  Solving for Uy, Initial residual = 0.00126453, Final residual = 6.98092e-05, No Iterations 4
GAMG:  Solving for p, Initial residual = 0.000490527, Final residual = 4.70568e-05, No Iterations 2
time step continuity errors : sum local = 1.66757e-05, global = 9.55067e-17, cumulative = 1.5784e-15
smoothSolver:  Solving for nuTilda, Initial residual = 0.000344419, Final residual = 2.12879e-05, No Iterations 4
bounding nuTilda, min: -0.00370522 max: 0.407977 average: 0.0719524
ExecutionTime = 0.98 s  ClockTime = 1 s

Time = 64

smoothSolver:  Solving for Ux, Initial residual = 0.00026202, Final residual = 1.23481e-05, No Iterations 4
smoothSolver:  Solving for Uy, Initial residual = 0.00123683, Final residual = 6.74688e-05, No Iterations 4
GAMG:  Solving for p, Initial residual = 0.000477853, Final residual = 2.63977e-05, No Iterations 3
time step continuity errors : sum local = 9.25996e-06, global = 1.38787e-16, cumulative = 1.71719e-15
smoothSolver:  Solving for nuTilda, Initial residual = 0.000330493, Final residual = 2.04068e-05, No Iterations 4
bounding nuTilda, min: -0.00368851 max: 0.407976 average: 0.0717798
ExecutionTime = 1 s  ClockTime = 1 s

Time = 65

smoothSolver:  Solving for Ux, Initial residual = 0.000252124, Final residual = 1.19838e-05, No Iterations 4
smoothSolver:  Solving for Uy, Initial residual = 0.00121086, Final residual = 6.65585e-05, No Iterations 4
GAMG:  Solving for p, Initial residual = 0.000454161, Final residual = 4.05812e-05, No Iterations 2
time step continuity errors : sum local = 1.41464e-05, global = 1.66596e-17, cumulative = 1.73385e-15
smoothSolver:  Solving for nuTilda, Initial residual = 0.000317043, Final residual = 1.95643e-05, No Iterations 4
bounding nuTilda, min: -0.00367223 max: 0.407974 average: 0.0716125
ExecutionTime = 1.01 s  ClockTime = 1 s

forces wings output:
    sum of forces:
        pressure : (-1.12385e-18 0.211805 -1.64147e-36)
        viscous  : (0.248844 1.43636e-05 6.75062e-38)
        porous   : (0 0 0)
    sum of moments:
        pressure : (-0.0105903 -5.61926e-20 0.00298108)
        viscous  : (-7.18179e-07 0.0124422 -3.62359e-06)
        porous   : (0 0 0)

Time = 66

smoothSolver:  Solving for Ux, Initial residual = 0.000240952, Final residual = 1.14072e-05, No Iterations 4
smoothSolver:  Solving for Uy, Initial residual = 0.00111996, Final residual = 6.17003e-05, No Iterations 4
GAMG:  Solving for p, Initial residual = 0.000436277, Final residual = 4.03165e-05, No Iterations 2
time step continuity errors : sum local = 1.40555e-05, global = 1.14892e-16, cumulative = 1.84874e-15
smoothSolver:  Solving for nuTilda, Initial residual = 0.00030413, Final residual = 1.87557e-05, No Iterations 4
bounding nuTilda, min: -0.0036565 max: 0.407973 average: 0.0714504
ExecutionTime = 1.03 s  ClockTime = 1 s

Time = 67

smoothSolver:  Solving for Ux, Initial residual = 0.000228749, Final residual = 1.07969e-05, No Iterations 4
smoothSolver:  Solving for Uy, Initial residual = 0.00104653, Final residual = 5.63229e-05, No Iterations 4
GAMG:  Solving for p, Initial residual = 0.000413071, Final residual = 3.9604e-05, No Iterations 2
time step continuity errors : sum local = 1.38718e-05, global = -1.71192e-16, cumulative = 1.67755e-15
smoothSolver:  Solving for nuTilda, Initial residual = 0.000291608, Final residual = 1.79806e-05, No Iterations 4
bounding nuTilda, min: -0.00364122 max: 0.407972 average: 0.0712935
ExecutionTime = 1.04 s  ClockTime = 1 s

Time = 68

smoothSolver:  Solving for Ux, Initial residual = 0.000217758, Final residual = 1.01737e-05, No Iterations 4
smoothSolver:  Solving for Uy, Initial residual = 0.00102675, Final residual = 5.298e-05, No Iterations 4
GAMG:  Solving for p, Initial residual = 0.000395979, Final residual = 3.6758e-05, No Iterations 2
time step continuity errors : sum local = 1.29751e-05, global = 3.17026e-17, cumulative = 1.70925e-15
smoothSolver:  Solving for nuTilda, Initial residual = 0.000279463, Final residual = 1.72339e-05, No Iterations 4
bounding nuTilda, min: -0.00362637 max: 0.407971 average: 0.071142
ExecutionTime = 1.05 s  ClockTime = 1 s

Time = 69

smoothSolver:  Solving for Ux, Initial residual = 0.000209866, Final residual = 9.77674e-06, No Iterations 4
smoothSolver:  Solving for Uy, Initial residual = 0.00101591, Final residual = 5.23491e-05, No Iterations 4
GAMG:  Solving for p, Initial residual = 0.000386027, Final residual = 3.49728e-05, No Iterations 2
time step continuity errors : sum local = 1.24386e-05, global = 8.47651e-17, cumulative = 1.79401e-15
smoothSolver:  Solving for nuTilda, Initial residual = 0.000267734, Final residual = 1.6508e-05, No Iterations 4
bounding nuTilda, min: -0.00361197 max: 0.407972 average: 0.0709959
ExecutionTime = 1.07 s  ClockTime = 1 s

Time = 70

smoothSolver:  Solving for Ux, Initial residual = 0.000206238, Final residual = 9.59764e-06, No Iterations 4
smoothSolver:  Solving for Uy, Initial residual = 0.000978294, Final residual = 5.2036e-05, No Iterations 4
GAMG:  Solving for p, Initial residual = 0.000373172, Final residual = 3.52899e-05, No Iterations 2
time step continuity errors : sum local = 1.26079e-05, global = 2.48905e-16, cumulative = 2.04292e-15
smoothSolver:  Solving for nuTilda, Initial residual = 0.000256065, Final residual = 1.58019e-05, No Iterations 4
bounding nuTilda, min: -0.00359801 max: 0.407972 average: 0.0708553
ExecutionTime = 1.08 s  ClockTime = 1 s

forces wings output:
    sum of forces:
        pressure : (-1.40425e-18 0.238711 -1.59492e-36)
        viscous  : (0.248122 1.56428e-05 6.6079e-38)
        porous   : (0 0 0)
    sum of moments:
        pressure : (-0.0119355 -7.02125e-20 0.00330999)
        viscous  : (-7.82139e-07 0.0124061 -4.6591e-06)
        porous   : (0 0 0)

Time = 71

smoothSolver:  Solving for Ux, Initial residual = 0.000203552, Final residual = 9.54348e-06, No Iterations 4
smoothSolver:  Solving for Uy, Initial residual = 0.000939488, Final residual = 5.02137e-05, No Iterations 4
GAMG:  Solving for p, Initial residual = 0.000366471, Final residual = 3.57525e-05, No Iterations 2
time step continuity errors : sum local = 1.27969e-05, global = -9.77169e-17, cumulative = 1.9452e-15
smoothSolver:  Solving for nuTilda, Initial residual = 0.000244847, Final residual = 1.51121e-05, No Iterations 4
bounding nuTilda, min: -0.00358446 max: 0.407972 average: 0.0707202
ExecutionTime = 1.09 s  ClockTime = 1 s

Time = 72

smoothSolver:  Solving for Ux, Initial residual = 0.000196644, Final residual = 9.32002e-06, No Iterations 4
smoothSolver:  Solving for Uy, Initial residual = 0.000958522, Final residual = 4.97645e-05, No Iterations 4
GAMG:  Solving for p, Initial residual = 0.000355618, Final residual = 3.30435e-05, No Iterations 2
time step continuity errors : sum local = 1.1852e-05, global = -8.06145e-17, cumulative = 1.86459e-15
smoothSolver:  Solving for nuTilda, Initial residual = 0.000233976, Final residual = 1.44575e-05, No Iterations 4
bounding nuTilda, min: -0.00357131 max: 0.407972 average: 0.0705908
ExecutionTime = 1.11 s  ClockTime = 1 s

Time = 73

smoothSolver:  Solving for Ux, Initial residual = 0.000189255, Final residual = 9.038e-06, No Iterations 4
smoothSolver:  Solving for Uy, Initial residual = 0.000978414, Final residual = 5.04275e-05, No Iterations 4
GAMG:  Solving for p, Initial residual = 0.000351978, Final residual = 2.94776e-05, No Iterations 2
time step continuity errors : sum local = 1.05841e-05, global = 1.56637e-16, cumulative = 2.02122e-15
smoothSolver:  Solving for nuTilda, Initial residual = 0.000223486, Final residual = 1.38324e-05, No Iterations 4
bounding nuTilda, min: -0.00355851 max: 0.407972 average: 0.070467
ExecutionTime = 1.12 s  ClockTime = 1 s

Time = 74

smoothSolver:  Solving for Ux, Initial residual = 0.00018193, Final residual = 8.71556e-06, No Iterations 4
smoothSolver:  Solving for Uy, Initial residual = 0.000959647, Final residual = 5.01719e-05, No Iterations 4
GAMG:  Solving for p, Initial residual = 0.000345421, Final residual = 2.77332e-05, No Iterations 2
time step continuity errors : sum local = 9.93212e-06, global = -2.35236e-16, cumulative = 1.78599e-15
smoothSolver:  Solving for nuTilda, Initial residual = 0.000213478, Final residual = 1.32407e-05, No Iterations 4
bounding nuTilda, min: -0.00354604 max: 0.407972 average: 0.0703487
ExecutionTime = 1.13 s  ClockTime = 1 s

Time = 75

smoothSolver:  Solving for Ux, Initial residual = 0.000176217, Final residual = 8.28477e-06, No Iterations 4
smoothSolver:  Solving for Uy, Initial residual = 0.000917871, Final residual = 4.80648e-05, No Iterations 4
GAMG:  Solving for p, Initial residual = 0.000341651, Final residual = 2.75791e-05, No Iterations 2
time step continuity errors : sum local = 9.82346e-06, global = -1.91184e-16, cumulative = 1.5948e-15
smoothSolver:  Solving for nuTilda, Initial residual = 0.000203937, Final residual = 1.26992e-05, No Iterations 4
bounding nuTilda, min: -0.00353387 max: 0.407972 average: 0.0702361
ExecutionTime = 1.15 s  ClockTime = 1 s

forces wings output:
    sum of forces:
        pressure : (-1.24808e-18 0.218676 -1.52259e-36)
        viscous  : (0.247602 1.60681e-05 6.36542e-38)
        porous   : (0 0 0)
    sum of moments:
        pressure : (-0.0109338 -6.24039e-20 -0.00283987)
        viscous  : (-8.03405e-07 0.0123801 -4.6842e-06)
        porous   : (0 0 0)

Time = 76

smoothSolver:  Solving for Ux, Initial residual = 0.000173222, Final residual = 8.01096e-06, No Iterations 4
smoothSolver:  Solving for Uy, Initial residual = 0.000891553, Final residual = 4.58243e-05, No Iterations 4
GAMG:  Solving for p, Initial residual = 0.000344784, Final residual = 2.75587e-05, No Iterations 2
time step continuity errors : sum local = 9.76524e-06, global = -1.66334e-16, cumulative = 1.42847e-15
smoothSolver:  Solving for nuTilda, Initial residual = 0.000195012, Final residual = 1.21886e-05, No Iterations 4
bounding nuTilda, min: -0.00352197 max: 0.407973 average: 0.0701289
ExecutionTime = 1.16 s  ClockTime = 1 s

Time = 77

smoothSolver:  Solving for Ux, Initial residual = 0.000171627, Final residual = 7.84737e-06, No Iterations 4
smoothSolver:  Solving for Uy, Initial residual = 0.00089064, Final residual = 4.5267e-05, No Iterations 4
GAMG:  Solving for p, Initial residual = 0.000347622, Final residual = 2.6428e-05, No Iterations 2
time step continuity errors : sum local = 9.33941e-06, global = 2.40227e-16, cumulative = 1.6687e-15
smoothSolver:  Solving for nuTilda, Initial residual = 0.000186473, Final residual = 1.17061e-05, No Iterations 4
bounding nuTilda, min: -0.00351031 max: 0.407973 average: 0.0700272
ExecutionTime = 1.18 s  ClockTime = 1 s

Time = 78

smoothSolver:  Solving for Ux, Initial residual = 0.000171605, Final residual = 7.75486e-06, No Iterations 4
smoothSolver:  Solving for Uy, Initial residual = 0.000893327, Final residual = 4.6506e-05, No Iterations 4
GAMG:  Solving for p, Initial residual = 0.000353513, Final residual = 2.52799e-05, No Iterations 2
time step continuity errors : sum local = 8.93064e-06, global = 1.6145e-16, cumulative = 1.83015e-15
smoothSolver:  Solving for nuTilda, Initial residual = 0.000178282, Final residual = 1.12481e-05, No Iterations 4
bounding nuTilda, min: -0.0034989 max: 0.407975 average: 0.0699312
ExecutionTime = 1.19 s  ClockTime = 2 s

Time = 79

smoothSolver:  Solving for Ux, Initial residual = 0.000170857, Final residual = 7.65754e-06, No Iterations 4
smoothSolver:  Solving for Uy, Initial residual = 0.000878564, Final residual = 4.75055e-05, No Iterations 4
GAMG:  Solving for p, Initial residual = 0.000356615, Final residual = 2.57008e-05, No Iterations 2
time step continuity errors : sum local = 9.08502e-06, global = 3.19504e-16, cumulative = 2.14965e-15
smoothSolver:  Solving for nuTilda, Initial residual = 0.000170971, Final residual = 1.08293e-05, No Iterations 4
bounding nuTilda, min: -0.00348771 max: 0.407976 average: 0.0698407
ExecutionTime = 1.2 s  ClockTime = 2 s

Time = 80

smoothSolver:  Solving for Ux, Initial residual = 0.000167705, Final residual = 7.44063e-06, No Iterations 4
smoothSolver:  Solving for Uy, Initial residual = 0.000856346, Final residual = 4.73169e-05, No Iterations 4
GAMG:  Solving for p, Initial residual = 0.000362949, Final residual = 2.52869e-05, No Iterations 2
time step continuity errors : sum local = 8.96096e-06, global = 5.61204e-17, cumulative = 2.20577e-15
smoothSolver:  Solving for nuTilda, Initial residual = 0.000164093, Final residual = 1.04395e-05, No Iterations 4
bounding nuTilda, min: -0.00347674 max: 0.407977 average: 0.069756
ExecutionTime = 1.22 s  ClockTime = 2 s

forces wings output:
    sum of forces:
        pressure : (-1.33637e-18 0.237818 -1.43848e-36)
        viscous  : (0.247224 1.79525e-05 6.05615e-38)
        porous   : (0 0 0)
    sum of moments:
        pressure : (-0.0118909 -6.68184e-20 -6.69289e-06)
        viscous  : (-8.97624e-07 0.0123612 -5.01135e-06)
        porous   : (0 0 0)

Time = 81

smoothSolver:  Solving for Ux, Initial residual = 0.000162357, Final residual = 7.0955e-06, No Iterations 4
smoothSolver:  Solving for Uy, Initial residual = 0.000853451, Final residual = 4.7171e-05, No Iterations 4
GAMG:  Solving for p, Initial residual = 0.000370822, Final residual = 2.38998e-05, No Iterations 2
time step continuity errors : sum local = 8.50206e-06, global = -2.2572e-16, cumulative = 1.98005e-15
smoothSolver:  Solving for nuTilda, Initial residual = 0.00015762, Final residual = 1.00664e-05, No Iterations 4
bounding nuTilda, min: -0.00346597 max: 0.407978 average: 0.0696773
ExecutionTime = 1.24 s  ClockTime = 2 s

Time = 82

smoothSolver:  Solving for Ux, Initial residual = 0.000156059, Final residual = 6.68925e-06, No Iterations 4
smoothSolver:  Solving for Uy, Initial residual = 0.000843901, Final residual = 4.68352e-05, No Iterations 4
GAMG:  Solving for p, Initial residual = 0.000377635, Final residual = 2.24793e-05, No Iterations 2
time step continuity errors : sum local = 8.02644e-06, global = -6.05405e-17, cumulative = 1.91951e-15
smoothSolver:  Solving for nuTilda, Initial residual = 0.000151348, Final residual = 9.69881e-06, No Iterations 4
bounding nuTilda, min: -0.0034554 max: 0.407978 average: 0.0696048
ExecutionTime = 1.25 s  ClockTime = 2 s

Time = 83

smoothSolver:  Solving for Ux, Initial residual = 0.000151634, Final residual = 6.38133e-06, No Iterations 4
smoothSolver:  Solving for Uy, Initial residual = 0.000821201, Final residual = 4.59875e-05, No Iterations 4
GAMG:  Solving for p, Initial residual = 0.000385005, Final residual = 2.22862e-05, No Iterations 2
time step continuity errors : sum local = 7.96589e-06, global = -1.81092e-16, cumulative = 1.73842e-15
smoothSolver:  Solving for nuTilda, Initial residual = 0.000145453, Final residual = 9.32742e-06, No Iterations 4
bounding nuTilda, min: -0.00344499 max: 0.407979 average: 0.0695388
ExecutionTime = 1.27 s  ClockTime = 2 s

Time = 84

smoothSolver:  Solving for Ux, Initial residual = 0.000148572, Final residual = 6.11625e-06, No Iterations 4
smoothSolver:  Solving for Uy, Initial residual = 0.000786618, Final residual = 4.46848e-05, No Iterations 4
GAMG:  Solving for p, Initial residual = 0.000394038, Final residual = 2.30103e-05, No Iterations 2
time step continuity errors : sum local = 8.20989e-06, global = 1.17583e-16, cumulative = 1.856e-15
smoothSolver:  Solving for nuTilda, Initial residual = 0.000139819, Final residual = 8.93972e-06, No Iterations 4
bounding nuTilda, min: -0.00343475 max: 0.40798 average: 0.0694795
ExecutionTime = 1.28 s  ClockTime = 2 s

Time = 85

smoothSolver:  Solving for Ux, Initial residual = 0.000145678, Final residual = 5.88107e-06, No Iterations 4
smoothSolver:  Solving for Uy, Initial residual = 0.000751142, Final residual = 4.30248e-05, No Iterations 4
GAMG:  Solving for p, Initial residual = 0.000401991, Final residual = 2.32483e-05, No Iterations 2
time step continuity errors : sum local = 8.27235e-06, global = 2.11662e-16, cumulative = 2.06766e-15
smoothSolver:  Solving for nuTilda, Initial residual = 0.00013428, Final residual = 8.53212e-06, No Iterations 4
bounding nuTilda, min: -0.00342466 max: 0.407981 average: 0.0694267
ExecutionTime = 1.29 s  ClockTime = 2 s

forces wings output:
    sum of forces:
        pressure : (-1.36352e-18 0.231215 -1.42318e-36)
        viscous  : (0.246935 1.78981e-05 6.02209e-38)
        porous   : (0 0 0)
    sum of moments:
        pressure : (-0.0115608 -6.81761e-20 -0.00456053)
        viscous  : (-8.94907e-07 0.0123468 -5.54952e-06)
        porous   : (0 0 0)

Time = 86

smoothSolver:  Solving for Ux, Initial residual = 0.000142999, Final residual = 5.73952e-06, No Iterations 4
smoothSolver:  Solving for Uy, Initial residual = 0.000725961, Final residual = 4.178e-05, No Iterations 4
GAMG:  Solving for p, Initial residual = 0.000409766, Final residual = 2.20003e-05, No Iterations 2
time step continuity errors : sum local = 7.8104e-06, global = -9.30712e-17, cumulative = 1.97459e-15
smoothSolver:  Solving for nuTilda, Initial residual = 0.000129008, Final residual = 8.10593e-06, No Iterations 4
bounding nuTilda, min: -0.0034147 max: 0.407982 average: 0.06938
ExecutionTime = 1.31 s  ClockTime = 2 s

Time = 87

smoothSolver:  Solving for Ux, Initial residual = 0.000139775, Final residual = 5.66958e-06, No Iterations 4
smoothSolver:  Solving for Uy, Initial residual = 0.000707021, Final residual = 4.12109e-05, No Iterations 4
GAMG:  Solving for p, Initial residual = 0.000415502, Final residual = 1.9198e-05, No Iterations 2
time step continuity errors : sum local = 6.80662e-06, global = -8.60466e-17, cumulative = 1.88855e-15
smoothSolver:  Solving for nuTilda, Initial residual = 0.000123859, Final residual = 7.66859e-06, No Iterations 4
bounding nuTilda, min: -0.00340485 max: 0.407984 average: 0.0693385
ExecutionTime = 1.32 s  ClockTime = 2 s

Time = 88

smoothSolver:  Solving for Ux, Initial residual = 0.000135276, Final residual = 5.53911e-06, No Iterations 4
smoothSolver:  Solving for Uy, Initial residual = 0.000681282, Final residual = 4.06266e-05, No Iterations 4
GAMG:  Solving for p, Initial residual = 0.000419888, Final residual = 4.04674e-05, No Iterations 1
time step continuity errors : sum local = 1.41803e-05, global = 6.91782e-17, cumulative = 1.95772e-15
smoothSolver:  Solving for nuTilda, Initial residual = 0.000118832, Final residual = 7.23312e-06, No Iterations 4
bounding nuTilda, min: -0.00339503 max: 0.407985 average: 0.0693015
ExecutionTime = 1.34 s  ClockTime = 2 s

Time = 89

smoothSolver:  Solving for Ux, Initial residual = 0.00012738, Final residual = 5.18198e-06, No Iterations 4
smoothSolver:  Solving for Uy, Initial residual = 0.00064239, Final residual = 3.93662e-05, No Iterations 4
GAMG:  Solving for p, Initial residual = 0.00042477, Final residual = 1.96777e-05, No Iterations 2
time step continuity errors : sum local = 6.91904e-06, global = 1.96816e-16, cumulative = 2.15454e-15
smoothSolver:  Solving for nuTilda, Initial residual = 0.000113953, Final residual = 6.80407e-06, No Iterations 4
bounding nuTilda, min: -0.00338553 max: 0.407986 average: 0.0692683
ExecutionTime = 1.35 s  ClockTime = 2 s

Time = 90

smoothSolver:  Solving for Ux, Initial residual = 0.00012056, Final residual = 4.97307e-06, No Iterations 4
smoothSolver:  Solving for Uy, Initial residual = 0.00060342, Final residual = 3.73018e-05, No Iterations 4
GAMG:  Solving for p, Initial residual = 0.000412065, Final residual = 3.96913e-05, No Iterations 1
time step continuity errors : sum local = 1.38694e-05, global = -1.10825e-16, cumulative = 2.04372e-15
smoothSolver:  Solving for nuTilda, Initial residual = 0.000109279, Final residual = 6.39598e-06, No Iterations 4
bounding nuTilda, min: -0.00337587 max: 0.407987 average: 0.0692381
ExecutionTime = 1.37 s  ClockTime = 2 s

forces wings output:
    sum of forces:
        pressure : (-1.2988e-18 0.232934 -1.37705e-36)
        viscous  : (0.246719 2.01016e-05 5.84184e-38)
        porous   : (0 0 0)
    sum of moments:
        pressure : (-0.0116467 -6.49402e-20 -0.00418093)
        viscous  : (-1.00508e-06 0.0123359 -5.33638e-06)
        porous   : (0 0 0)

Time = 91

smoothSolver:  Solving for Ux, Initial residual = 0.000112296, Final residual = 4.62125e-06, No Iterations 4
smoothSolver:  Solving for Uy, Initial residual = 0.000569032, Final residual = 3.57622e-05, No Iterations 4
GAMG:  Solving for p, Initial residual = 0.000399909, Final residual = 1.80181e-05, No Iterations 2
time step continuity errors : sum local = 6.3238e-06, global = 1.20908e-17, cumulative = 2.05581e-15
smoothSolver:  Solving for nuTilda, Initial residual = 0.000104683, Final residual = 6.00486e-06, No Iterations 4
bounding nuTilda, min: -0.00336652 max: 0.407988 average: 0.0692106
ExecutionTime = 1.38 s  ClockTime = 2 s

Time = 92

smoothSolver:  Solving for Ux, Initial residual = 0.000104715, Final residual = 4.36575e-06, No Iterations 4
smoothSolver:  Solving for Uy, Initial residual = 0.000525079, Final residual = 3.27057e-05, No Iterations 4
GAMG:  Solving for p, Initial residual = 0.000375179, Final residual = 3.7327e-05, No Iterations 1
time step continuity errors : sum local = 1.30372e-05, global = -1.70041e-17, cumulative = 2.0388e-15
smoothSolver:  Solving for nuTilda, Initial residual = 9.99313e-05, Final residual = 5.62961e-06, No Iterations 4
bounding nuTilda, min: -0.00335705 max: 0.407989 average: 0.0691852
ExecutionTime = 1.39 s  ClockTime = 2 s

Time = 93

smoothSolver:  Solving for Ux, Initial residual = 9.7018e-05, Final residual = 4.02614e-06, No Iterations 4
smoothSolver:  Solving for Uy, Initial residual = 0.000493181, Final residual = 3.1164e-05, No Iterations 4
GAMG:  Solving for p, Initial residual = 0.000355121, Final residual = 1.54701e-05, No Iterations 2
time step continuity errors : sum local = 5.45928e-06, global = -2.16452e-16, cumulative = 1.82235e-15
smoothSolver:  Solving for nuTilda, Initial residual = 9.49928e-05, Final residual = 5.25904e-06, No Iterations 4
bounding nuTilda, min: -0.00334788 max: 0.40799 average: 0.0691616
ExecutionTime = 1.41 s  ClockTime = 2 s

Time = 94

smoothSolver:  Solving for Ux, Initial residual = 9.05134e-05, Final residual = 3.78723e-06, No Iterations 4
smoothSolver:  Solving for Uy, Initial residual = 0.000444284, Final residual = 2.83838e-05, No Iterations 4
GAMG:  Solving for p, Initial residual = 0.000325692, Final residual = 1.32677e-05, No Iterations 2
time step continuity errors : sum local = 4.71105e-06, global = -4.56126e-17, cumulative = 1.77674e-15
smoothSolver:  Solving for nuTilda, Initial residual = 8.99047e-05, Final residual = 4.89497e-06, No Iterations 4
bounding nuTilda, min: -0.00333867 max: 0.407991 average: 0.0691397
ExecutionTime = 1.42 s  ClockTime = 2 s

Time = 95

smoothSolver:  Solving for Ux, Initial residual = 8.42904e-05, Final residual = 3.55667e-06, No Iterations 4
smoothSolver:  Solving for Uy, Initial residual = 0.000409101, Final residual = 2.63647e-05, No Iterations 4
GAMG:  Solving for p, Initial residual = 0.00029844, Final residual = 2.84135e-05, No Iterations 1
time step continuity errors : sum local = 9.97094e-06, global = 1.10915e-16, cumulative = 1.88765e-15
smoothSolver:  Solving for nuTilda, Initial residual = 8.46421e-05, Final residual = 4.53757e-06, No Iterations 4
bounding nuTilda, min: -0.00332948 max: 0.407993 average: 0.0691192
ExecutionTime = 1.44 s  ClockTime = 2 s

forces wings output:
    sum of forces:
        pressure : (-1.40497e-18 0.242771 -1.37958e-36)
        viscous  : (0.246559 1.94155e-05 5.85841e-38)
        porous   : (0 0 0)
    sum of moments:
        pressure : (-0.0121385 -7.02483e-20 -0.00263643)
        viscous  : (-9.70776e-07 0.0123279 -5.81808e-06)
        porous   : (0 0 0)

Time = 96

smoothSolver:  Solving for Ux, Initial residual = 7.76624e-05, Final residual = 3.28305e-06, No Iterations 4
smoothSolver:  Solving for Uy, Initial residual = 0.000387998, Final residual = 2.55814e-05, No Iterations 4
GAMG:  Solving for p, Initial residual = 0.000276168, Final residual = 1.29494e-05, No Iterations 2
time step continuity errors : sum local = 4.62016e-06, global = 1.08367e-16, cumulative = 1.99602e-15
smoothSolver:  Solving for nuTilda, Initial residual = 7.92715e-05, Final residual = 4.1882e-06, No Iterations 4
bounding nuTilda, min: -0.00332055 max: 0.407994 average: 0.0690999
ExecutionTime = 1.45 s  ClockTime = 2 s

Time = 97

smoothSolver:  Solving for Ux, Initial residual = 7.36767e-05, Final residual = 3.19527e-06, No Iterations 4
smoothSolver:  Solving for Uy, Initial residual = 0.000370986, Final residual = 2.45352e-05, No Iterations 4
GAMG:  Solving for p, Initial residual = 0.000250849, Final residual = 9.64402e-06, No Iterations 2
time step continuity errors : sum local = 3.46756e-06, global = 2.77145e-17, cumulative = 2.02373e-15
smoothSolver:  Solving for nuTilda, Initial residual = 7.39739e-05, Final residual = 3.85214e-06, No Iterations 4
bounding nuTilda, min: -0.00331153 max: 0.407996 average: 0.0690818
ExecutionTime = 1.46 s  ClockTime = 2 s

Time = 98

smoothSolver:  Solving for Ux, Initial residual = 7.00516e-05, Final residual = 3.1093e-06, No Iterations 4
smoothSolver:  Solving for Uy, Initial residual = 0.000352953, Final residual = 2.36256e-05, No Iterations 4
GAMG:  Solving for p, Initial residual = 0.000229265, Final residual = 2.11814e-05, No Iterations 1
time step continuity errors : sum local = 7.46697e-06, global = 8.84423e-17, cumulative = 2.11218e-15
smoothSolver:  Solving for nuTilda, Initial residual = 6.8648e-05, Final residual = 3.53135e-06, No Iterations 4
bounding nuTilda, min: -0.00330252 max: 0.407997 average: 0.0690646
ExecutionTime = 1.48 s  ClockTime = 2 s

Time = 99

smoothSolver:  Solving for Ux, Initial residual = 6.47584e-05, Final residual = 2.86985e-06, No Iterations 4
smoothSolver:  Solving for Uy, Initial residual = 0.00033123, Final residual = 2.26043e-05, No Iterations 4
GAMG:  Solving for p, Initial residual = 0.00021325, Final residual = 1.0275e-05, No Iterations 2
time step continuity errors : sum local = 3.65219e-06, global = -9.52627e-17, cumulative = 2.01691e-15
smoothSolver:  Solving for nuTilda, Initial residual = 6.32961e-05, Final residual = 3.22619e-06, No Iterations 4
bounding nuTilda, min: -0.0032937 max: 0.407998 average: 0.0690484
ExecutionTime = 1.49 s  ClockTime = 2 s

Time = 100

smoothSolver:  Solving for Ux, Initial residual = 6.06099e-05, Final residual = 2.71031e-06, No Iterations 4
smoothSolver:  Solving for Uy, Initial residual = 0.000304442, Final residual = 2.07611e-05, No Iterations 4
GAMG:  Solving for p, Initial residual = 0.000190463, Final residual = 8.52599e-06, No Iterations 2
time step continuity errors : sum local = 3.02345e-06, global = 2.62432e-16, cumulative = 2.27935e-15
smoothSolver:  Solving for nuTilda, Initial residual = 5.79936e-05, Final residual = 2.9403e-06, No Iterations 4
bounding nuTilda, min: -0.00328485 max: 0.407999 average: 0.069033
ExecutionTime = 1.53 s  ClockTime = 2 s

forces wings output:
    sum of forces:
        pressure : (-1.32212e-18 0.234028 -1.37947e-36)
        viscous  : (0.246445 2.01107e-05 5.86158e-38)
        porous   : (0 0 0)
    sum of moments:
        pressure : (-0.0117014 -6.61062e-20 -0.00530717)
        viscous  : (-1.00553e-06 0.0123222 -5.58556e-06)
        porous   : (0 0 0)

Time = 101

smoothSolver:  Solving for Ux, Initial residual = 5.74409e-05, Final residual = 2.57965e-06, No Iterations 4
smoothSolver:  Solving for Uy, Initial residual = 0.00029452, Final residual = 1.95897e-05, No Iterations 4
GAMG:  Solving for p, Initial residual = 0.000172562, Final residual = 1.71806e-05, No Iterations 1
time step continuity errors : sum local = 6.0316e-06, global = 1.17764e-16, cumulative = 2.39711e-15
smoothSolver:  Solving for nuTilda, Initial residual = 5.27862e-05, Final residual = 2.6756e-06, No Iterations 4
bounding nuTilda, min: -0.00327603 max: 0.408 average: 0.0690184
ExecutionTime = 1.55 s  ClockTime = 2 s

Time = 102

smoothSolver:  Solving for Ux, Initial residual = 5.35612e-05, Final residual = 2.39767e-06, No Iterations 4
smoothSolver:  Solving for Uy, Initial residual = 0.00028069, Final residual = 1.88671e-05, No Iterations 4
GAMG:  Solving for p, Initial residual = 0.00016157, Final residual = 8.40374e-06, No Iterations 2
time step continuity errors : sum local = 2.95295e-06, global = 5.83247e-17, cumulative = 2.45543e-15
smoothSolver:  Solving for nuTilda, Initial residual = 4.77486e-05, Final residual = 2.43502e-06, No Iterations 4
bounding nuTilda, min: -0.00326735 max: 0.408 average: 0.0690045
ExecutionTime = 1.56 s  ClockTime = 2 s

Time = 103

smoothSolver:  Solving for Ux, Initial residual = 5.13907e-05, Final residual = 2.34183e-06, No Iterations 4
smoothSolver:  Solving for Uy, Initial residual = 0.000262357, Final residual = 1.80619e-05, No Iterations 4
GAMG:  Solving for p, Initial residual = 0.00014472, Final residual = 7.72991e-06, No Iterations 2
time step continuity errors : sum local = 2.71847e-06, global = 2.04201e-16, cumulative = 2.65964e-15
smoothSolver:  Solving for nuTilda, Initial residual = 4.29929e-05, Final residual = 2.22304e-06, No Iterations 4
bounding nuTilda, min: -0.00325867 max: 0.408001 average: 0.0689913
ExecutionTime = 1.57 s  ClockTime = 2 s

Time = 104

smoothSolver:  Solving for Ux, Initial residual = 4.95808e-05, Final residual = 2.31062e-06, No Iterations 4
smoothSolver:  Solving for Uy, Initial residual = 0.000253781, Final residual = 1.73804e-05, No Iterations 4
GAMG:  Solving for p, Initial residual = 0.000131442, Final residual = 6.52551e-06, No Iterations 2
time step continuity errors : sum local = 2.3084e-06, global = -2.46996e-17, cumulative = 2.63494e-15
smoothSolver:  Solving for nuTilda, Initial residual = 3.86041e-05, Final residual = 2.03887e-06, No Iterations 4
bounding nuTilda, min: -0.00325005 max: 0.408002 average: 0.0689787
ExecutionTime = 1.58 s  ClockTime = 2 s

Time = 105

smoothSolver:  Solving for Ux, Initial residual = 4.73614e-05, Final residual = 2.25175e-06, No Iterations 4
smoothSolver:  Solving for Uy, Initial residual = 0.000249317, Final residual = 1.70112e-05, No Iterations 4
GAMG:  Solving for p, Initial residual = 0.000121727, Final residual = 5.2801e-06, No Iterations 2
time step continuity errors : sum local = 1.8868e-06, global = 9.41392e-17, cumulative = 2.72908e-15
smoothSolver:  Solving for nuTilda, Initial residual = 3.46279e-05, Final residual = 1.88197e-06, No Iterations 4
bounding nuTilda, min: -0.00324149 max: 0.408003 average: 0.0689667
ExecutionTime = 1.6 s  ClockTime = 2 s

forces wings output:
    sum of forces:
        pressure : (-1.4104e-18 0.241967 -1.37635e-36)
        viscous  : (0.246364 1.99402e-05 5.84885e-38)
        porous   : (0 0 0)
    sum of moments:
        pressure : (-0.0120983 -7.05201e-20 -0.00290367)
        viscous  : (-9.97008e-07 0.0123182 -5.79742e-06)
        porous   : (0 0 0)

Time = 106

smoothSolver:  Solving for Ux, Initial residual = 4.47459e-05, Final residual = 2.15123e-06, No Iterations 4
smoothSolver:  Solving for Uy, Initial residual = 0.000242342, Final residual = 1.66122e-05, No Iterations 4
GAMG:  Solving for p, Initial residual = 0.000111964, Final residual = 4.86804e-06, No Iterations 2
time step continuity errors : sum local = 1.75552e-06, global = -1.90976e-16, cumulative = 2.5381e-15
smoothSolver:  Solving for nuTilda, Initial residual = 3.10876e-05, Final residual = 1.74983e-06, No Iterations 4
bounding nuTilda, min: -0.003233 max: 0.408004 average: 0.0689553
ExecutionTime = 1.61 s  ClockTime = 2 s

Time = 107

smoothSolver:  Solving for Ux, Initial residual = 4.2144e-05, Final residual = 2.03139e-06, No Iterations 4
smoothSolver:  Solving for Uy, Initial residual = 0.000227728, Final residual = 1.59091e-05, No Iterations 4
GAMG:  Solving for p, Initial residual = 0.000103205, Final residual = 4.73255e-06, No Iterations 2
time step continuity errors : sum local = 1.71298e-06, global = -1.48539e-16, cumulative = 2.38956e-15
smoothSolver:  Solving for nuTilda, Initial residual = 2.79971e-05, Final residual = 1.63935e-06, No Iterations 4
bounding nuTilda, min: -0.00322458 max: 0.408004 average: 0.0689445
ExecutionTime = 1.63 s  ClockTime = 2 s

Time = 108

smoothSolver:  Solving for Ux, Initial residual = 3.97463e-05, Final residual = 1.90693e-06, No Iterations 4
smoothSolver:  Solving for Uy, Initial residual = 0.000210038, Final residual = 1.48439e-05, No Iterations 4
GAMG:  Solving for p, Initial residual = 9.50052e-05, Final residual = 4.6523e-06, No Iterations 2
time step continuity errors : sum local = 1.68014e-06, global = 1.17454e-16, cumulative = 2.50701e-15
smoothSolver:  Solving for nuTilda, Initial residual = 2.53571e-05, Final residual = 1.54632e-06, No Iterations 4
bounding nuTilda, min: -0.00321622 max: 0.408005 average: 0.0689341
ExecutionTime = 1.64 s  ClockTime = 2 s

Time = 109

smoothSolver:  Solving for Ux, Initial residual = 3.77115e-05, Final residual = 1.80254e-06, No Iterations 4
smoothSolver:  Solving for Uy, Initial residual = 0.00019902, Final residual = 1.3895e-05, No Iterations 4
GAMG:  Solving for p, Initial residual = 8.73871e-05, Final residual = 4.11125e-06, No Iterations 2
time step continuity errors : sum local = 1.48196e-06, global = -3.06776e-16, cumulative = 2.20024e-15
smoothSolver:  Solving for nuTilda, Initial residual = 2.31536e-05, Final residual = 1.46592e-06, No Iterations 4
bounding nuTilda, min: -0.00320794 max: 0.408006 average: 0.0689242
ExecutionTime = 1.66 s  ClockTime = 2 s

Time = 110

smoothSolver:  Solving for Ux, Initial residual = 3.60981e-05, Final residual = 1.73374e-06, No Iterations 4
smoothSolver:  Solving for Uy, Initial residual = 0.000192444, Final residual = 1.34013e-05, No Iterations 4
GAMG:  Solving for p, Initial residual = 8.07876e-05, Final residual = 4.18537e-06, No Iterations 2
time step continuity errors : sum local = 1.49446e-06, global = 6.66843e-17, cumulative = 2.26692e-15
smoothSolver:  Solving for nuTilda, Initial residual = 2.1312e-05, Final residual = 1.39457e-06, No Iterations 4
bounding nuTilda, min: -0.00319974 max: 0.408006 average: 0.0689148
ExecutionTime = 1.67 s  ClockTime = 2 s

forces wings output:
    sum of forces:
        pressure : (-1.3472e-18 0.236563 -1.37881e-36)
        viscous  : (0.246313 2.00036e-05 5.86123e-38)
        porous   : (0 0 0)
    sum of moments:
[...]
smoothSolver:  Solving for nuTilda, Initial residual = 1.99368e-07, Final residual = 6.97802e-10, No Iterations 2
bounding nuTilda, min: -0.00288998 max: 0.408016 average: 0.0687256
ExecutionTime = 6.88 s  ClockTime = 7 s

Time = 474

smoothSolver:  Solving for Ux, Initial residual = 1.74158e-07, Final residual = 7.49885e-09, No Iterations 4
smoothSolver:  Solving for Uy, Initial residual = 1.58368e-06, Final residual = 7.33401e-08, No Iterations 4
GAMG:  Solving for p, Initial residual = 1.00043e-06, Final residual = 3.4542e-07, No Iterations 1
time step continuity errors : sum local = 1.21371e-07, global = -7.94139e-18, cumulative = 9.12151e-15
smoothSolver:  Solving for nuTilda, Initial residual = 1.99398e-07, Final residual = 6.91115e-10, No Iterations 2
bounding nuTilda, min: -0.00288998 max: 0.408016 average: 0.0687256
ExecutionTime = 6.89 s  ClockTime = 7 s

Time = 475

smoothSolver:  Solving for Ux, Initial residual = 1.61413e-07, Final residual = 7.31622e-09, No Iterations 4
smoothSolver:  Solving for Uy, Initial residual = 1.53308e-06, Final residual = 7.32082e-08, No Iterations 4
GAMG:  Solving for p, Initial residual = 1.06445e-06, Final residual = 3.85966e-07, No Iterations 1
time step continuity errors : sum local = 1.35112e-07, global = 1.99511e-16, cumulative = 9.32102e-15
smoothSolver:  Solving for nuTilda, Initial residual = 1.99524e-07, Final residual = 7.16463e-10, No Iterations 2
bounding nuTilda, min: -0.00288998 max: 0.408016 average: 0.0687256
ExecutionTime = 6.91 s  ClockTime = 7 s

forces wings output:
    sum of forces:
        pressure : (-1.39135e-18 0.239325 -1.34207e-36)
        viscous  : (0.246329 1.9995e-05 5.71525e-38)
        porous   : (0 0 0)
    sum of moments:
        pressure : (-0.0119662 -6.95674e-20 5.26441e-05)
        viscous  : (-9.9975e-07 0.0123164 -5.53753e-06)
        porous   : (0 0 0)

Time = 476

smoothSolver:  Solving for Ux, Initial residual = 1.39103e-07, Final residual = 6.4774e-09, No Iterations 4
smoothSolver:  Solving for Uy, Initial residual = 1.30333e-06, Final residual = 6.17385e-08, No Iterations 4
GAMG:  Solving for p, Initial residual = 1.01064e-06, Final residual = 3.96289e-07, No Iterations 1
time step continuity errors : sum local = 1.38351e-07, global = -3.13209e-16, cumulative = 9.00781e-15
smoothSolver:  Solving for nuTilda, Initial residual = 1.99578e-07, Final residual = 7.25404e-10, No Iterations 2
bounding nuTilda, min: -0.00288998 max: 0.408016 average: 0.0687256
ExecutionTime = 6.93 s  ClockTime = 7 s

Time = 477

smoothSolver:  Solving for Ux, Initial residual = 1.34415e-07, Final residual = 6.08827e-09, No Iterations 4
smoothSolver:  Solving for Uy, Initial residual = 1.234e-06, Final residual = 5.58456e-08, No Iterations 4
GAMG:  Solving for p, Initial residual = 9.59196e-07, Final residual = 9.59196e-07, No Iterations 0
time step continuity errors : sum local = 3.34393e-07, global = 2.21611e-16, cumulative = 9.22942e-15
smoothSolver:  Solving for nuTilda, Initial residual = 1.99986e-07, Final residual = 8.25633e-10, No Iterations 2
bounding nuTilda, min: -0.00288998 max: 0.408016 average: 0.0687256
ExecutionTime = 6.94 s  ClockTime = 7 s

Time = 478

smoothSolver:  Solving for Ux, Initial residual = 1.23375e-07, Final residual = 5.70814e-09, No Iterations 4
smoothSolver:  Solving for Uy, Initial residual = 1.12822e-06, Final residual = 5.33214e-08, No Iterations 4
GAMG:  Solving for p, Initial residual = 1.33274e-06, Final residual = 5.04517e-07, No Iterations 1
time step continuity errors : sum local = 1.75765e-07, global = 2.74766e-16, cumulative = 9.50419e-15
smoothSolver:  Solving for nuTilda, Initial residual = 1.99547e-07, Final residual = 7.43083e-10, No Iterations 2
bounding nuTilda, min: -0.00288998 max: 0.408016 average: 0.0687256
ExecutionTime = 6.95 s  ClockTime = 7 s

Time = 479

smoothSolver:  Solving for Ux, Initial residual = 1.25065e-07, Final residual = 5.46096e-09, No Iterations 4
smoothSolver:  Solving for Uy, Initial residual = 1.085e-06, Final residual = 5.09829e-08, No Iterations 4
GAMG:  Solving for p, Initial residual = 9.91375e-07, Final residual = 9.91375e-07, No Iterations 0
time step continuity errors : sum local = 3.45338e-07, global = 4.41885e-17, cumulative = 9.54837e-15
smoothSolver:  Solving for nuTilda, Initial residual = 1.99719e-07, Final residual = 8.07363e-10, No Iterations 2
bounding nuTilda, min: -0.00288998 max: 0.408016 average: 0.0687256
ExecutionTime = 6.97 s  ClockTime = 7 s

Time = 480

smoothSolver:  Solving for Ux, Initial residual = 1.1176e-07, Final residual = 5.12025e-09, No Iterations 4
smoothSolver:  Solving for Uy, Initial residual = 9.86603e-07, Final residual = 4.76828e-08, No Iterations 4
GAMG:  Solving for p, Initial residual = 1.25427e-06, Final residual = 4.70907e-07, No Iterations 1
time step continuity errors : sum local = 1.64455e-07, global = -7.23144e-17, cumulative = 9.47606e-15
smoothSolver:  Solving for nuTilda, Initial residual = 1.99538e-07, Final residual = 7.62824e-10, No Iterations 2
bounding nuTilda, min: -0.00288998 max: 0.408016 average: 0.0687256
ExecutionTime = 6.98 s  ClockTime = 7 s

forces wings output:
    sum of forces:
        pressure : (-1.39913e-18 0.239339 -1.3467e-36)
        viscous  : (0.246329 1.99923e-05 5.73541e-38)
        porous   : (0 0 0)
    sum of moments:
        pressure : (-0.0119669 -6.99564e-20 -1.03253e-05)
        viscous  : (-9.99617e-07 0.0123164 -5.53886e-06)
        porous   : (0 0 0)

Time = 481

smoothSolver:  Solving for Ux, Initial residual = 1.37959e-07, Final residual = 6.00797e-09, No Iterations 4
smoothSolver:  Solving for Uy, Initial residual = 1.20452e-06, Final residual = 5.52589e-08, No Iterations 4
GAMG:  Solving for p, Initial residual = 9.83438e-07, Final residual = 9.83438e-07, No Iterations 0
time step continuity errors : sum local = 3.42645e-07, global = -6.19609e-17, cumulative = 9.4141e-15
smoothSolver:  Solving for nuTilda, Initial residual = 1.99697e-07, Final residual = 7.61689e-10, No Iterations 2
bounding nuTilda, min: -0.00288998 max: 0.408016 average: 0.0687256
ExecutionTime = 6.99 s  ClockTime = 7 s

Time = 482

smoothSolver:  Solving for Ux, Initial residual = 1.24101e-07, Final residual = 5.56076e-09, No Iterations 4
smoothSolver:  Solving for Uy, Initial residual = 1.0984e-06, Final residual = 5.26085e-08, No Iterations 4
GAMG:  Solving for p, Initial residual = 1.30258e-06, Final residual = 4.66635e-07, No Iterations 1
time step continuity errors : sum local = 1.63511e-07, global = 2.24134e-16, cumulative = 9.63823e-15
smoothSolver:  Solving for nuTilda, Initial residual = 1.9954e-07, Final residual = 7.2182e-10, No Iterations 2
bounding nuTilda, min: -0.00288998 max: 0.408016 average: 0.0687256
ExecutionTime = 7.01 s  ClockTime = 7 s

Time = 483

smoothSolver:  Solving for Ux, Initial residual = 1.30534e-07, Final residual = 5.84849e-09, No Iterations 4
smoothSolver:  Solving for Uy, Initial residual = 1.17957e-06, Final residual = 5.42734e-08, No Iterations 4
GAMG:  Solving for p, Initial residual = 1.00326e-06, Final residual = 3.79262e-07, No Iterations 1
time step continuity errors : sum local = 1.3345e-07, global = -8.14902e-17, cumulative = 9.55674e-15
smoothSolver:  Solving for nuTilda, Initial residual = 1.99499e-07, Final residual = 6.91007e-10, No Iterations 2
bounding nuTilda, min: -0.00288998 max: 0.408016 average: 0.0687256
ExecutionTime = 7.02 s  ClockTime = 7 s

Time = 484

smoothSolver:  Solving for Ux, Initial residual = 1.63564e-07, Final residual = 7.28802e-09, No Iterations 4
smoothSolver:  Solving for Uy, Initial residual = 1.50897e-06, Final residual = 6.85267e-08, No Iterations 4
GAMG:  Solving for p, Initial residual = 9.61802e-07, Final residual = 9.61802e-07, No Iterations 0
time step continuity errors : sum local = 3.35578e-07, global = 1.19292e-16, cumulative = 9.67603e-15
smoothSolver:  Solving for nuTilda, Initial residual = 1.9987e-07, Final residual = 7.74596e-10, No Iterations 2
bounding nuTilda, min: -0.00288998 max: 0.408016 average: 0.0687256
ExecutionTime = 7.04 s  ClockTime = 7 s

Time = 485

smoothSolver:  Solving for Ux, Initial residual = 1.48854e-07, Final residual = 6.8449e-09, No Iterations 4
smoothSolver:  Solving for Uy, Initial residual = 1.38375e-06, Final residual = 6.49925e-08, No Iterations 4
GAMG:  Solving for p, Initial residual = 1.41526e-06, Final residual = 5.02803e-07, No Iterations 1
time step continuity errors : sum local = 1.76642e-07, global = 2.59676e-16, cumulative = 9.93571e-15
smoothSolver:  Solving for nuTilda, Initial residual = 1.99548e-07, Final residual = 7.04734e-10, No Iterations 2
bounding nuTilda, min: -0.00288998 max: 0.408016 average: 0.0687256
ExecutionTime = 7.05 s  ClockTime = 7 s

forces wings output:
    sum of forces:
        pressure : (-1.39111e-18 0.239237 -1.34419e-36)
        viscous  : (0.246329 2.00187e-05 5.72337e-38)
        porous   : (0 0 0)
    sum of moments:
        pressure : (-0.0119618 -6.95556e-20 -2.20974e-05)
        viscous  : (-1.00093e-06 0.0123164 -5.5136e-06)
        porous   : (0 0 0)

Time = 486

smoothSolver:  Solving for Ux, Initial residual = 1.2473e-07, Final residual = 5.55919e-09, No Iterations 4
smoothSolver:  Solving for Uy, Initial residual = 1.12731e-06, Final residual = 5.3492e-08, No Iterations 4
GAMG:  Solving for p, Initial residual = 1.06403e-06, Final residual = 4.28769e-07, No Iterations 1
time step continuity errors : sum local = 1.50708e-07, global = -1.41458e-17, cumulative = 9.92157e-15
smoothSolver:  Solving for nuTilda, Initial residual = 1.99424e-07, Final residual = 6.92541e-10, No Iterations 2
bounding nuTilda, min: -0.00288998 max: 0.408016 average: 0.0687256
ExecutionTime = 7.06 s  ClockTime = 7 s

Time = 487

smoothSolver:  Solving for Ux, Initial residual = 1.67809e-07, Final residual = 7.06913e-09, No Iterations 4
smoothSolver:  Solving for Uy, Initial residual = 1.45834e-06, Final residual = 6.4082e-08, No Iterations 4
GAMG:  Solving for p, Initial residual = 1.01269e-06, Final residual = 3.63437e-07, No Iterations 1
time step continuity errors : sum local = 1.27652e-07, global = -3.42712e-16, cumulative = 9.57885e-15
smoothSolver:  Solving for nuTilda, Initial residual = 1.99505e-07, Final residual = 6.95644e-10, No Iterations 2
bounding nuTilda, min: -0.00288998 max: 0.408016 average: 0.0687256
ExecutionTime = 7.08 s  ClockTime = 7 s

Time = 488

smoothSolver:  Solving for Ux, Initial residual = 1.6162e-07, Final residual = 7.1785e-09, No Iterations 4
smoothSolver:  Solving for Uy, Initial residual = 1.50401e-06, Final residual = 6.95849e-08, No Iterations 4
GAMG:  Solving for p, Initial residual = 1.07634e-06, Final residual = 3.82235e-07, No Iterations 1
time step continuity errors : sum local = 1.33848e-07, global = 6.60983e-17, cumulative = 9.64495e-15
smoothSolver:  Solving for nuTilda, Initial residual = 1.99602e-07, Final residual = 7.11181e-10, No Iterations 2
bounding nuTilda, min: -0.00288998 max: 0.408016 average: 0.0687256
ExecutionTime = 7.09 s  ClockTime = 7 s

Time = 489

smoothSolver:  Solving for Ux, Initial residual = 1.43919e-07, Final residual = 6.66385e-09, No Iterations 4
smoothSolver:  Solving for Uy, Initial residual = 1.40304e-06, Final residual = 6.80086e-08, No Iterations 4
GAMG:  Solving for p, Initial residual = 1.02476e-06, Final residual = 3.90401e-07, No Iterations 1
time step continuity errors : sum local = 1.36323e-07, global = -2.07362e-16, cumulative = 9.43759e-15
smoothSolver:  Solving for nuTilda, Initial residual = 1.99662e-07, Final residual = 7.24555e-10, No Iterations 2
bounding nuTilda, min: -0.00288998 max: 0.408016 average: 0.0687256
ExecutionTime = 7.11 s  ClockTime = 7 s

Time = 490

smoothSolver:  Solving for Ux, Initial residual = 1.40297e-07, Final residual = 6.40101e-09, No Iterations 4
smoothSolver:  Solving for Uy, Initial residual = 1.34121e-06, Final residual = 6.38397e-08, No Iterations 4
GAMG:  Solving for p, Initial residual = 9.70797e-07, Final residual = 9.70797e-07, No Iterations 0
time step continuity errors : sum local = 3.38445e-07, global = -2.89863e-16, cumulative = 9.14773e-15
smoothSolver:  Solving for nuTilda, Initial residual = 2.00113e-07, Final residual = 8.41239e-10, No Iterations 2
bounding nuTilda, min: -0.00288998 max: 0.408016 average: 0.0687256
ExecutionTime = 7.12 s  ClockTime = 7 s

forces wings output:
    sum of forces:
        pressure : (-1.39361e-18 0.239368 -1.34275e-36)
        viscous  : (0.246329 1.99887e-05 5.71832e-38)
        porous   : (0 0 0)
    sum of moments:
        pressure : (-0.0119684 -6.96805e-20 5.93634e-05)
        viscous  : (-9.99434e-07 0.0123164 -5.54409e-06)
        porous   : (0 0 0)

Time = 491

smoothSolver:  Solving for Ux, Initial residual = 1.28979e-07, Final residual = 6.02278e-09, No Iterations 4
smoothSolver:  Solving for Uy, Initial residual = 1.23476e-06, Final residual = 6.12107e-08, No Iterations 4
GAMG:  Solving for p, Initial residual = 1.33679e-06, Final residual = 5.0862e-07, No Iterations 1
time step continuity errors : sum local = 1.77079e-07, global = -4.09953e-16, cumulative = 8.73777e-15
smoothSolver:  Solving for nuTilda, Initial residual = 1.99737e-07, Final residual = 7.63095e-10, No Iterations 2
bounding nuTilda, min: -0.00288998 max: 0.408016 average: 0.0687256
ExecutionTime = 7.14 s  ClockTime = 7 s

Time = 492

smoothSolver:  Solving for Ux, Initial residual = 1.24672e-07, Final residual = 5.36298e-09, No Iterations 4
smoothSolver:  Solving for Uy, Initial residual = 1.08573e-06, Final residual = 4.98638e-08, No Iterations 4
GAMG:  Solving for p, Initial residual = 1.01254e-06, Final residual = 4.01405e-07, No Iterations 1
time step continuity errors : sum local = 1.39972e-07, global = -7.8226e-17, cumulative = 8.65955e-15
smoothSolver:  Solving for nuTilda, Initial residual = 1.99634e-07, Final residual = 7.38253e-10, No Iterations 2
bounding nuTilda, min: -0.00288998 max: 0.408016 average: 0.0687256
ExecutionTime = 7.15 s  ClockTime = 7 s

Time = 493

smoothSolver:  Solving for Ux, Initial residual = 1.75879e-07, Final residual = 7.67251e-09, No Iterations 4
smoothSolver:  Solving for Uy, Initial residual = 1.59795e-06, Final residual = 7.38441e-08, No Iterations 4
GAMG:  Solving for p, Initial residual = 9.78116e-07, Final residual = 9.78116e-07, No Iterations 0
time step continuity errors : sum local = 3.40612e-07, global = 1.28277e-16, cumulative = 8.78782e-15
smoothSolver:  Solving for nuTilda, Initial residual = 1.99821e-07, Final residual = 7.64516e-10, No Iterations 2
bounding nuTilda, min: -0.00288998 max: 0.408016 average: 0.0687256
ExecutionTime = 7.16 s  ClockTime = 7 s

Time = 494

smoothSolver:  Solving for Ux, Initial residual = 1.60245e-07, Final residual = 7.19549e-09, No Iterations 4
smoothSolver:  Solving for Uy, Initial residual = 1.46246e-06, Final residual = 6.9672e-08, No Iterations 4
GAMG:  Solving for p, Initial residual = 1.44072e-06, Final residual = 5.01548e-07, No Iterations 1
time step continuity errors : sum local = 1.75338e-07, global = 2.18543e-16, cumulative = 9.00637e-15
smoothSolver:  Solving for nuTilda, Initial residual = 1.99765e-07, Final residual = 7.38273e-10, No Iterations 2
bounding nuTilda, min: -0.00288998 max: 0.408016 average: 0.0687256
ExecutionTime = 7.18 s  ClockTime = 7 s

Time = 495

smoothSolver:  Solving for Ux, Initial residual = 1.25508e-07, Final residual = 5.73003e-09, No Iterations 4
smoothSolver:  Solving for Uy, Initial residual = 1.14149e-06, Final residual = 5.37782e-08, No Iterations 4
GAMG:  Solving for p, Initial residual = 1.08009e-06, Final residual = 4.2706e-07, No Iterations 1
time step continuity errors : sum local = 1.49858e-07, global = -4.86248e-17, cumulative = 8.95774e-15
smoothSolver:  Solving for nuTilda, Initial residual = 1.99685e-07, Final residual = 7.25246e-10, No Iterations 2
bounding nuTilda, min: -0.00288998 max: 0.408016 average: 0.0687256
ExecutionTime = 7.19 s  ClockTime = 8 s

forces wings output:
    sum of forces:
        pressure : (-1.3956e-18 0.239264 -1.34666e-36)
        viscous  : (0.246329 2.00045e-05 5.73438e-38)
        porous   : (0 0 0)
    sum of moments:
        pressure : (-0.0119632 -6.97801e-20 -3.74611e-05)
        viscous  : (-1.00022e-06 0.0123164 -5.52371e-06)
        porous   : (0 0 0)

Time = 496

smoothSolver:  Solving for Ux, Initial residual = 1.62037e-07, Final residual = 6.97319e-09, No Iterations 4
smoothSolver:  Solving for Uy, Initial residual = 1.39788e-06, Final residual = 5.96526e-08, No Iterations 4
GAMG:  Solving for p, Initial residual = 9.94902e-07, Final residual = 9.94902e-07, No Iterations 0
time step continuity errors : sum local = 3.46903e-07, global = 1.34647e-16, cumulative = 9.09239e-15
smoothSolver:  Solving for nuTilda, Initial residual = 1.9998e-07, Final residual = 8.02309e-10, No Iterations 2
bounding nuTilda, min: -0.00288998 max: 0.408016 average: 0.0687256
ExecutionTime = 7.2 s  ClockTime = 8 s

Time = 497

smoothSolver:  Solving for Ux, Initial residual = 1.44975e-07, Final residual = 6.48291e-09, No Iterations 4
smoothSolver:  Solving for Uy, Initial residual = 1.25791e-06, Final residual = 5.62626e-08, No Iterations 4
GAMG:  Solving for p, Initial residual = 1.46875e-06, Final residual = 4.94014e-07, No Iterations 1
time step continuity errors : sum local = 1.73568e-07, global = 3.12006e-16, cumulative = 9.4044e-15
smoothSolver:  Solving for nuTilda, Initial residual = 1.99546e-07, Final residual = 7.26249e-10, No Iterations 2
bounding nuTilda, min: -0.00288998 max: 0.408016 average: 0.0687256
ExecutionTime = 7.22 s  ClockTime = 8 s

Time = 498

smoothSolver:  Solving for Ux, Initial residual = 1.28851e-07, Final residual = 5.75665e-09, No Iterations 4
smoothSolver:  Solving for Uy, Initial residual = 1.14672e-06, Final residual = 5.40613e-08, No Iterations 4
GAMG:  Solving for p, Initial residual = 1.11554e-06, Final residual = 4.15973e-07, No Iterations 1
time step continuity errors : sum local = 1.46409e-07, global = 3.32673e-16, cumulative = 9.73707e-15
smoothSolver:  Solving for nuTilda, Initial residual = 1.994e-07, Final residual = 7.16582e-10, No Iterations 2
bounding nuTilda, min: -0.00288998 max: 0.408016 average: 0.0687256
ExecutionTime = 7.23 s  ClockTime = 8 s

Time = 499

smoothSolver:  Solving for Ux, Initial residual = 1.75338e-07, Final residual = 7.54535e-09, No Iterations 4
smoothSolver:  Solving for Uy, Initial residual = 1.53147e-06, Final residual = 6.97621e-08, No Iterations 4
GAMG:  Solving for p, Initial residual = 1.03295e-06, Final residual = 3.60085e-07, No Iterations 1
time step continuity errors : sum local = 1.26687e-07, global = 8.93399e-17, cumulative = 9.82641e-15
smoothSolver:  Solving for nuTilda, Initial residual = 1.99503e-07, Final residual = 7.28891e-10, No Iterations 2
bounding nuTilda, min: -0.00288998 max: 0.408016 average: 0.0687256
ExecutionTime = 7.24 s  ClockTime = 8 s

Time = 500

smoothSolver:  Solving for Ux, Initial residual = 1.67504e-07, Final residual = 7.49825e-09, No Iterations 4
smoothSolver:  Solving for Uy, Initial residual = 1.52463e-06, Final residual = 7.07596e-08, No Iterations 4
GAMG:  Solving for p, Initial residual = 1.10023e-06, Final residual = 3.84415e-07, No Iterations 1
time step continuity errors : sum local = 1.34797e-07, global = -1.96446e-16, cumulative = 9.62996e-15
smoothSolver:  Solving for nuTilda, Initial residual = 1.9966e-07, Final residual = 7.42379e-10, No Iterations 2
bounding nuTilda, min: -0.00288998 max: 0.408016 average: 0.0687256
ExecutionTime = 7.29 s  ClockTime = 8 s

forces wings output:
    sum of forces:
        pressure : (-1.38984e-18 0.239274 -1.34202e-36)
        viscous  : (0.246329 2.00059e-05 5.71489e-38)
        porous   : (0 0 0)
    sum of moments:
        pressure : (-0.0119637 -6.94922e-20 2.8727e-05)
        viscous  : (-1.0003e-06 0.0123164 -5.52752e-06)
        porous   : (0 0 0)

End

