/*---------------------------------------------------------------------------*\
| =========                 |                                                 |
| \\      /  F ield         | OpenFOAM: The Open Source CFD Toolbox           |
|  \\    /   O peration     | Version:  2.3.0                                 |
|   \\  /    A nd           | Web:      www.OpenFOAM.org                      |
|    \\/     M anipulation  |                                                 |
\*---------------------------------------------------------------------------*/
Build  : 2.3.0-f5222ca19ce6
Exec   : simpleFoam -case Runs/first_arc_300_6/case
Date   : Jan 12 2015
Time   : 00:55:22
Host   : "lordvon-XPS-8300"
PID    : 10171
Case   : Runs/first_arc_300_6/case
nProcs : 1
sigFpe : Enabling floating point exception trapping (FOAM_SIGFPE).
fileModificationChecking : Monitoring run-time modified files using timeStampMaster
allowSystemOperations : Disallowing user-supplied system call operations

// * * * * * * * * * * * * * * * * * * * * * * * * * * * * * * * * * * * * * //
Create time

Create mesh for time = 0

Reading field p

Reading field U

Reading/calculating face flux field phi

Selecting incompressible transport model Newtonian
Selecting RAS turbulence model SpalartAllmaras
SpalartAllmarasCoeffs
{
    sigmaNut        0.66666;
    kappa           0.41;
    Cb1             0.1355;
    Cb2             0.622;
    Cw2             0.3;
    Cw3             2;
    Cv1             7.1;
    Cv2             5;
}

    Employing Ashford correction
No finite volume options present


SIMPLE: convergence criteria
    field p	 tolerance 1e-12
    field U	 tolerance 1e-12
    field nuTilda	 tolerance 1e-12


Starting time loop

forces wings:
    Not including porosity effects

Time = 1

smoothSolver:  Solving for Ux, Initial residual = 1, Final residual = 0.00358581, No Iterations 6
smoothSolver:  Solving for Uy, Initial residual = 1, Final residual = 0.00798369, No Iterations 4
GAMG:  Solving for p, Initial residual = 1, Final residual = 0.00702487, No Iterations 9
time step continuity errors : sum local = 0.000871416, global = -1.8698e-16, cumulative = -1.8698e-16
smoothSolver:  Solving for nuTilda, Initial residual = 1, Final residual = 0.00393411, No Iterations 4
ExecutionTime = 0.35 s  ClockTime = 0 s

Time = 2

smoothSolver:  Solving for Ux, Initial residual = 0.523596, Final residual = 0.00261369, No Iterations 8
smoothSolver:  Solving for Uy, Initial residual = 0.590179, Final residual = 0.00328176, No Iterations 8
GAMG:  Solving for p, Initial residual = 0.73822, Final residual = 0.00705354, No Iterations 5
time step continuity errors : sum local = 0.00175332, global = 1.79601e-16, cumulative = -7.37918e-18
smoothSolver:  Solving for nuTilda, Initial residual = 0.186082, Final residual = 0.000711009, No Iterations 6
ExecutionTime = 0.43 s  ClockTime = 0 s

Time = 3

smoothSolver:  Solving for Ux, Initial residual = 0.19323, Final residual = 0.000947841, No Iterations 8
smoothSolver:  Solving for Uy, Initial residual = 0.187443, Final residual = 0.00102598, No Iterations 8
GAMG:  Solving for p, Initial residual = 0.56109, Final residual = 0.00539381, No Iterations 7
time step continuity errors : sum local = 0.00184599, global = -8.71929e-17, cumulative = -9.45721e-17
smoothSolver:  Solving for nuTilda, Initial residual = 0.094964, Final residual = 0.000843385, No Iterations 6
ExecutionTime = 0.52 s  ClockTime = 0 s

Time = 4

smoothSolver:  Solving for Ux, Initial residual = 0.0655964, Final residual = 0.000253469, No Iterations 8
smoothSolver:  Solving for Uy, Initial residual = 0.0557158, Final residual = 0.000283688, No Iterations 8
GAMG:  Solving for p, Initial residual = 0.420055, Final residual = 0.00323866, No Iterations 6
time step continuity errors : sum local = 0.00113994, global = 2.51834e-16, cumulative = 1.57262e-16
smoothSolver:  Solving for nuTilda, Initial residual = 0.0721369, Final residual = 0.000200478, No Iterations 8
ExecutionTime = 0.6 s  ClockTime = 0 s

Time = 5

smoothSolver:  Solving for Ux, Initial residual = 0.183924, Final residual = 0.000905747, No Iterations 8
smoothSolver:  Solving for Uy, Initial residual = 0.214526, Final residual = 0.0011469, No Iterations 8
GAMG:  Solving for p, Initial residual = 0.356568, Final residual = 0.00272322, No Iterations 6
time step continuity errors : sum local = 0.00102372, global = 3.46497e-17, cumulative = 1.91912e-16
smoothSolver:  Solving for nuTilda, Initial residual = 0.0596298, Final residual = 0.000182727, No Iterations 8
ExecutionTime = 0.69 s  ClockTime = 0 s

forces wings output:
    sum of forces:
        pressure : (-223.468 -736.329 -6.7144e-18)
        viscous  : (0.531911 -0.0386966 6.83707e-20)
        porous   : (0 0 0)
    sum of moments:
        pressure : (36.8165 -11.1734 -460.004)
        viscous  : (0.00193483 0.0265955 -0.037134)
        porous   : (0 0 0)

Time = 6

smoothSolver:  Solving for Ux, Initial residual = 0.150884, Final residual = 0.000708508, No Iterations 8
smoothSolver:  Solving for Uy, Initial residual = 0.189989, Final residual = 0.00100961, No Iterations 8
GAMG:  Solving for p, Initial residual = 0.297525, Final residual = 0.00214645, No Iterations 8
time step continuity errors : sum local = 0.000845413, global = 7.87294e-17, cumulative = 2.70641e-16
smoothSolver:  Solving for nuTilda, Initial residual = 0.0499008, Final residual = 0.000159409, No Iterations 8
ExecutionTime = 0.79 s  ClockTime = 1 s

Time = 7

smoothSolver:  Solving for Ux, Initial residual = 0.10329, Final residual = 0.000429041, No Iterations 8
smoothSolver:  Solving for Uy, Initial residual = 0.138178, Final residual = 0.000709649, No Iterations 8
GAMG:  Solving for p, Initial residual = 0.218646, Final residual = 0.00194678, No Iterations 6
time step continuity errors : sum local = 0.000762265, global = -2.33667e-16, cumulative = 3.69744e-17
smoothSolver:  Solving for nuTilda, Initial residual = 0.042046, Final residual = 0.000138014, No Iterations 8
ExecutionTime = 0.88 s  ClockTime = 1 s

Time = 8

smoothSolver:  Solving for Ux, Initial residual = 0.120712, Final residual = 0.000571391, No Iterations 8
smoothSolver:  Solving for Uy, Initial residual = 0.144311, Final residual = 0.000755316, No Iterations 8
GAMG:  Solving for p, Initial residual = 0.224921, Final residual = 0.00152597, No Iterations 6
time step continuity errors : sum local = 0.000624134, global = -6.01651e-17, cumulative = -2.31907e-17
smoothSolver:  Solving for nuTilda, Initial residual = 0.0357055, Final residual = 0.00011977, No Iterations 8
ExecutionTime = 0.96 s  ClockTime = 1 s

Time = 9

smoothSolver:  Solving for Ux, Initial residual = 0.0495067, Final residual = 0.000210821, No Iterations 8
smoothSolver:  Solving for Uy, Initial residual = 0.0403023, Final residual = 0.000206191, No Iterations 8
GAMG:  Solving for p, Initial residual = 0.187742, Final residual = 0.00185132, No Iterations 6
time step continuity errors : sum local = 0.000768601, global = 1.99052e-18, cumulative = -2.12001e-17
smoothSolver:  Solving for nuTilda, Initial residual = 0.0306688, Final residual = 0.000105386, No Iterations 8
ExecutionTime = 1.05 s  ClockTime = 1 s

Time = 10

smoothSolver:  Solving for Ux, Initial residual = 0.0494154, Final residual = 0.000210916, No Iterations 8
smoothSolver:  Solving for Uy, Initial residual = 0.0582863, Final residual = 0.000293503, No Iterations 8
GAMG:  Solving for p, Initial residual = 0.151418, Final residual = 0.00104163, No Iterations 5
time step continuity errors : sum local = 0.000424062, global = -3.63843e-17, cumulative = -5.75844e-17
smoothSolver:  Solving for nuTilda, Initial residual = 0.0267504, Final residual = 9.44573e-05, No Iterations 8
ExecutionTime = 1.13 s  ClockTime = 1 s

forces wings output:
    sum of forces:
        pressure : (-132.09 -428.162 -3.95566e-18)
        viscous  : (0.499151 -0.0646883 7.99484e-20)
        porous   : (0 0 0)
    sum of moments:
        pressure : (21.4081 -6.60448 -271.524)
        viscous  : (0.00323441 0.0249575 -0.0533408)
        porous   : (0 0 0)

Time = 11

smoothSolver:  Solving for Ux, Initial residual = 0.0649288, Final residual = 0.000300395, No Iterations 8
smoothSolver:  Solving for Uy, Initial residual = 0.0839543, Final residual = 0.000425065, No Iterations 8
GAMG:  Solving for p, Initial residual = 0.155386, Final residual = 0.0011712, No Iterations 6
time step continuity errors : sum local = 0.000487729, global = 5.77761e-17, cumulative = 1.91673e-19
smoothSolver:  Solving for nuTilda, Initial residual = 0.0234961, Final residual = 8.55919e-05, No Iterations 8
ExecutionTime = 1.22 s  ClockTime = 1 s

Time = 12

smoothSolver:  Solving for Ux, Initial residual = 0.03054, Final residual = 0.000116928, No Iterations 8
smoothSolver:  Solving for Uy, Initial residual = 0.0240461, Final residual = 0.000107053, No Iterations 8
GAMG:  Solving for p, Initial residual = 0.122326, Final residual = 0.000899051, No Iterations 7
time step continuity errors : sum local = 0.000366221, global = 1.12455e-16, cumulative = 1.12647e-16
smoothSolver:  Solving for nuTilda, Initial residual = 0.0207387, Final residual = 7.80168e-05, No Iterations 8
ExecutionTime = 1.31 s  ClockTime = 1 s

Time = 13

smoothSolver:  Solving for Ux, Initial residual = 0.039758, Final residual = 0.000163386, No Iterations 8
smoothSolver:  Solving for Uy, Initial residual = 0.0532366, Final residual = 0.000263308, No Iterations 8
GAMG:  Solving for p, Initial residual = 0.100028, Final residual = 0.000971872, No Iterations 5
time step continuity errors : sum local = 0.000386224, global = 5.87098e-17, cumulative = 1.71357e-16
smoothSolver:  Solving for nuTilda, Initial residual = 0.0183831, Final residual = 7.12996e-05, No Iterations 8
ExecutionTime = 1.4 s  ClockTime = 1 s

Time = 14

smoothSolver:  Solving for Ux, Initial residual = 0.037422, Final residual = 0.000162723, No Iterations 8
smoothSolver:  Solving for Uy, Initial residual = 0.0417112, Final residual = 0.000207671, No Iterations 8
GAMG:  Solving for p, Initial residual = 0.107965, Final residual = 0.000812358, No Iterations 6
time step continuity errors : sum local = 0.000331784, global = -1.96144e-16, cumulative = -2.47869e-17
smoothSolver:  Solving for nuTilda, Initial residual = 0.0163844, Final residual = 6.54227e-05, No Iterations 8
ExecutionTime = 1.49 s  ClockTime = 1 s

Time = 15

smoothSolver:  Solving for Ux, Initial residual = 0.0183423, Final residual = 6.81415e-05, No Iterations 8
smoothSolver:  Solving for Uy, Initial residual = 0.0120706, Final residual = 5.3556e-05, No Iterations 8
GAMG:  Solving for p, Initial residual = 0.0847749, Final residual = 0.000767529, No Iterations 6
time step continuity errors : sum local = 0.000308452, global = -2.43156e-17, cumulative = -4.91025e-17
smoothSolver:  Solving for nuTilda, Initial residual = 0.0147428, Final residual = 6.0555e-05, No Iterations 8
ExecutionTime = 1.57 s  ClockTime = 1 s

forces wings output:
    sum of forces:
        pressure : (-42.7989 -129.196 -1.25926e-18)
        viscous  : (0.486109 -0.0607511 3.19947e-20)
        porous   : (0 0 0)
    sum of moments:
        pressure : (6.4598 -2.13995 -87.4669)
        viscous  : (0.00303756 0.0243055 -0.0499265)
        porous   : (0 0 0)

Time = 16

smoothSolver:  Solving for Ux, Initial residual = 0.0237744, Final residual = 9.9881e-05, No Iterations 8
smoothSolver:  Solving for Uy, Initial residual = 0.0295668, Final residual = 0.000142628, No Iterations 8
GAMG:  Solving for p, Initial residual = 0.0724106, Final residual = 0.00036402, No Iterations 6
time step continuity errors : sum local = 0.000144014, global = -2.76908e-17, cumulative = -7.67932e-17
smoothSolver:  Solving for nuTilda, Initial residual = 0.0133863, Final residual = 5.65842e-05, No Iterations 8
ExecutionTime = 1.67 s  ClockTime = 1 s

Time = 17

smoothSolver:  Solving for Ux, Initial residual = 0.0214098, Final residual = 9.20354e-05, No Iterations 8
smoothSolver:  Solving for Uy, Initial residual = 0.0243547, Final residual = 0.000114672, No Iterations 8
GAMG:  Solving for p, Initial residual = 0.0761406, Final residual = 0.00075479, No Iterations 5
time step continuity errors : sum local = 0.000302196, global = 2.95415e-17, cumulative = -4.72518e-17
smoothSolver:  Solving for nuTilda, Initial residual = 0.0122682, Final residual = 5.32164e-05, No Iterations 8
ExecutionTime = 1.75 s  ClockTime = 2 s

Time = 18

smoothSolver:  Solving for Ux, Initial residual = 0.01235, Final residual = 4.48874e-05, No Iterations 8
smoothSolver:  Solving for Uy, Initial residual = 0.0123719, Final residual = 5.29435e-05, No Iterations 8
GAMG:  Solving for p, Initial residual = 0.0597009, Final residual = 0.000484326, No Iterations 5
time step continuity errors : sum local = 0.000193342, global = -1.84426e-17, cumulative = -6.56944e-17
smoothSolver:  Solving for nuTilda, Initial residual = 0.0112735, Final residual = 5.01203e-05, No Iterations 8
ExecutionTime = 1.84 s  ClockTime = 2 s

Time = 19

smoothSolver:  Solving for Ux, Initial residual = 0.0157686, Final residual = 6.26323e-05, No Iterations 8
smoothSolver:  Solving for Uy, Initial residual = 0.0200425, Final residual = 9.43783e-05, No Iterations 8
GAMG:  Solving for p, Initial residual = 0.0506137, Final residual = 0.000291014, No Iterations 6
time step continuity errors : sum local = 0.000114532, global = -1.63048e-17, cumulative = -8.19992e-17
smoothSolver:  Solving for nuTilda, Initial residual = 0.0103918, Final residual = 4.71903e-05, No Iterations 8
ExecutionTime = 1.93 s  ClockTime = 2 s

Time = 20

smoothSolver:  Solving for Ux, Initial residual = 0.0134777, Final residual = 5.48311e-05, No Iterations 8
smoothSolver:  Solving for Uy, Initial residual = 0.0124064, Final residual = 5.74383e-05, No Iterations 8
GAMG:  Solving for p, Initial residual = 0.0521248, Final residual = 0.00038613, No Iterations 6
time step continuity errors : sum local = 0.000154608, global = 2.27302e-16, cumulative = 1.45303e-16
smoothSolver:  Solving for nuTilda, Initial residual = 0.0096143, Final residual = 4.44696e-05, No Iterations 8
ExecutionTime = 2.01 s  ClockTime = 2 s

forces wings output:
    sum of forces:
        pressure : (-3.66284 -0.156631 -1.07349e-19)
        viscous  : (0.475253 -0.0530091 2.62611e-21)
        porous   : (0 0 0)
    sum of moments:
        pressure : (0.00783155 -0.183142 -6.90163)
        viscous  : (0.00265046 0.0237626 -0.0445091)
        porous   : (0 0 0)

Time = 21

smoothSolver:  Solving for Ux, Initial residual = 0.00987503, Final residual = 3.80047e-05, No Iterations 8
smoothSolver:  Solving for Uy, Initial residual = 0.00851547, Final residual = 3.80416e-05, No Iterations 8
GAMG:  Solving for p, Initial residual = 0.0421522, Final residual = 0.000303485, No Iterations 6
time step continuity errors : sum local = 0.000121476, global = -1.97764e-16, cumulative = -5.2461e-17
smoothSolver:  Solving for nuTilda, Initial residual = 0.00894773, Final residual = 4.20418e-05, No Iterations 8
ExecutionTime = 2.1 s  ClockTime = 2 s

Time = 22

smoothSolver:  Solving for Ux, Initial residual = 0.0107278, Final residual = 4.49146e-05, No Iterations 8
smoothSolver:  Solving for Uy, Initial residual = 0.0120455, Final residual = 5.5431e-05, No Iterations 8
GAMG:  Solving for p, Initial residual = 0.0348438, Final residual = 0.000327466, No Iterations 5
time step continuity errors : sum local = 0.000128369, global = 2.55519e-17, cumulative = -2.69091e-17
smoothSolver:  Solving for nuTilda, Initial residual = 0.00839043, Final residual = 3.98993e-05, No Iterations 8
ExecutionTime = 2.19 s  ClockTime = 2 s

Time = 23

smoothSolver:  Solving for Ux, Initial residual = 0.00855896, Final residual = 3.57767e-05, No Iterations 8
smoothSolver:  Solving for Uy, Initial residual = 0.00733219, Final residual = 3.20976e-05, No Iterations 8
GAMG:  Solving for p, Initial residual = 0.0345873, Final residual = 0.000246553, No Iterations 5
time step continuity errors : sum local = 9.8248e-05, global = 2.1955e-16, cumulative = 1.92641e-16
smoothSolver:  Solving for nuTilda, Initial residual = 0.00790599, Final residual = 3.79811e-05, No Iterations 8
ExecutionTime = 2.27 s  ClockTime = 2 s

Time = 24

smoothSolver:  Solving for Ux, Initial residual = 0.00668678, Final residual = 2.51486e-05, No Iterations 8
smoothSolver:  Solving for Uy, Initial residual = 0.00702548, Final residual = 3.1376e-05, No Iterations 8
GAMG:  Solving for p, Initial residual = 0.0289219, Final residual = 0.000122568, No Iterations 5
time step continuity errors : sum local = 4.85448e-05, global = 1.56603e-16, cumulative = 3.49243e-16
smoothSolver:  Solving for nuTilda, Initial residual = 0.00748435, Final residual = 3.61858e-05, No Iterations 8
ExecutionTime = 2.36 s  ClockTime = 2 s

Time = 25

smoothSolver:  Solving for Ux, Initial residual = 0.0075994, Final residual = 2.98418e-05, No Iterations 8
smoothSolver:  Solving for Uy, Initial residual = 0.0076903, Final residual = 3.59229e-05, No Iterations 8
GAMG:  Solving for p, Initial residual = 0.0236891, Final residual = 0.000181139, No Iterations 5
time step continuity errors : sum local = 7.19859e-05, global = -1.00136e-16, cumulative = 2.49108e-16
smoothSolver:  Solving for nuTilda, Initial residual = 0.00710751, Final residual = 3.4482e-05, No Iterations 8
ExecutionTime = 2.44 s  ClockTime = 2 s

forces wings output:
    sum of forces:
        pressure : (5.22231 29.0892 1.36365e-19)
        viscous  : (0.463073 -0.0481872 -4.44199e-21)
        porous   : (0 0 0)
    sum of moments:
        pressure : (-1.45446 0.261116 11.3866)
        viscous  : (0.00240936 0.0231537 -0.0411346)
        porous   : (0 0 0)

Time = 26

smoothSolver:  Solving for Ux, Initial residual = 0.00655915, Final residual = 2.57619e-05, No Iterations 8
smoothSolver:  Solving for Uy, Initial residual = 0.00441357, Final residual = 1.96082e-05, No Iterations 8
GAMG:  Solving for p, Initial residual = 0.021963, Final residual = 0.000214589, No Iterations 5
time step continuity errors : sum local = 8.62334e-05, global = 9.57834e-17, cumulative = 3.44891e-16
smoothSolver:  Solving for nuTilda, Initial residual = 0.00675337, Final residual = 3.2863e-05, No Iterations 8
ExecutionTime = 2.53 s  ClockTime = 2 s

Time = 27

smoothSolver:  Solving for Ux, Initial residual = 0.00588028, Final residual = 2.31169e-05, No Iterations 8
smoothSolver:  Solving for Uy, Initial residual = 0.00460028, Final residual = 2.05717e-05, No Iterations 8
GAMG:  Solving for p, Initial residual = 0.0198216, Final residual = 0.000186895, No Iterations 5
time step continuity errors : sum local = 7.47806e-05, global = -1.03041e-16, cumulative = 2.4185e-16
smoothSolver:  Solving for nuTilda, Initial residual = 0.00643497, Final residual = 3.13907e-05, No Iterations 8
bounding nuTilda, min: -0.00010451 max: 0.407285 average: 0.0856121
ExecutionTime = 2.61 s  ClockTime = 2 s

Time = 28

smoothSolver:  Solving for Ux, Initial residual = 0.00568167, Final residual = 2.32068e-05, No Iterations 8
smoothSolver:  Solving for Uy, Initial residual = 0.00462485, Final residual = 2.09926e-05, No Iterations 8
GAMG:  Solving for p, Initial residual = 0.0160141, Final residual = 0.000138186, No Iterations 5
time step continuity errors : sum local = 5.49422e-05, global = -5.41023e-17, cumulative = 1.87747e-16
smoothSolver:  Solving for nuTilda, Initial residual = 0.00614771, Final residual = 3.00082e-05, No Iterations 8
bounding nuTilda, min: -6.09281e-05 max: 0.407215 average: 0.084671
ExecutionTime = 2.69 s  ClockTime = 2 s

Time = 29

smoothSolver:  Solving for Ux, Initial residual = 0.00485453, Final residual = 1.96792e-05, No Iterations 8
smoothSolver:  Solving for Uy, Initial residual = 0.00335975, Final residual = 1.43791e-05, No Iterations 8
GAMG:  Solving for p, Initial residual = 0.0144273, Final residual = 8.94643e-05, No Iterations 5
time step continuity errors : sum local = 3.58746e-05, global = 4.65112e-17, cumulative = 2.34259e-16
smoothSolver:  Solving for nuTilda, Initial residual = 0.00589615, Final residual = 2.87636e-05, No Iterations 8
ExecutionTime = 2.78 s  ClockTime = 3 s

Time = 30

smoothSolver:  Solving for Ux, Initial residual = 0.00439073, Final residual = 1.70669e-05, No Iterations 8
smoothSolver:  Solving for Uy, Initial residual = 0.00357816, Final residual = 1.59477e-05, No Iterations 8
GAMG:  Solving for p, Initial residual = 0.0138796, Final residual = 8.64412e-05, No Iterations 5
time step continuity errors : sum local = 3.45633e-05, global = 9.48196e-17, cumulative = 3.29078e-16
smoothSolver:  Solving for nuTilda, Initial residual = 0.00564725, Final residual = 2.75364e-05, No Iterations 8
bounding nuTilda, min: -0.000132325 max: 0.407062 average: 0.0828634
ExecutionTime = 2.87 s  ClockTime = 3 s

forces wings output:
    sum of forces:
        pressure : (4.2942 27.4516 1.15249e-19)
        viscous  : (0.450424 -0.0457609 -3.48844e-21)
        porous   : (0 0 0)
    sum of moments:
        pressure : (-1.37258 0.21471 9.55218)
        viscous  : (0.00228805 0.0225212 -0.0393164)
        porous   : (0 0 0)

Time = 31

smoothSolver:  Solving for Ux, Initial residual = 0.00448865, Final residual = 1.77031e-05, No Iterations 8
smoothSolver:  Solving for Uy, Initial residual = 0.00314159, Final residual = 1.48529e-05, No Iterations 8
GAMG:  Solving for p, Initial residual = 0.0111456, Final residual = 6.70191e-05, No Iterations 5
time step continuity errors : sum local = 2.66467e-05, global = 8.22633e-17, cumulative = 4.11342e-16
smoothSolver:  Solving for nuTilda, Initial residual = 0.00541769, Final residual = 2.64198e-05, No Iterations 8
bounding nuTilda, min: -0.000121894 max: 0.407043 average: 0.0819961
ExecutionTime = 2.95 s  ClockTime = 3 s

Time = 32

smoothSolver:  Solving for Ux, Initial residual = 0.00430881, Final residual = 1.73464e-05, No Iterations 8
smoothSolver:  Solving for Uy, Initial residual = 0.00242479, Final residual = 1.11275e-05, No Iterations 8
GAMG:  Solving for p, Initial residual = 0.00932535, Final residual = 8.62536e-05, No Iterations 5
time step continuity errors : sum local = 3.43147e-05, global = 3.30162e-16, cumulative = 7.41504e-16
smoothSolver:  Solving for nuTilda, Initial residual = 0.00518935, Final residual = 2.52904e-05, No Iterations 8
ExecutionTime = 3.04 s  ClockTime = 3 s

Time = 33

smoothSolver:  Solving for Ux, Initial residual = 0.00413212, Final residual = 1.68603e-05, No Iterations 8
smoothSolver:  Solving for Uy, Initial residual = 0.00242638, Final residual = 1.1049e-05, No Iterations 8
GAMG:  Solving for p, Initial residual = 0.0094396, Final residual = 9.26811e-05, No Iterations 5
time step continuity errors : sum local = 3.7041e-05, global = -3.71066e-16, cumulative = 3.70437e-16
smoothSolver:  Solving for nuTilda, Initial residual = 0.00498857, Final residual = 2.43065e-05, No Iterations 8
bounding nuTilda, min: -0.000250487 max: 0.407146 average: 0.0803241
ExecutionTime = 3.12 s  ClockTime = 3 s

Time = 34

smoothSolver:  Solving for Ux, Initial residual = 0.00399021, Final residual = 1.63678e-05, No Iterations 8
smoothSolver:  Solving for Uy, Initial residual = 0.00221655, Final residual = 1.03524e-05, No Iterations 8
GAMG:  Solving for p, Initial residual = 0.00805749, Final residual = 6.91429e-05, No Iterations 5
time step continuity errors : sum local = 2.7509e-05, global = 1.61364e-16, cumulative = 5.31801e-16
smoothSolver:  Solving for nuTilda, Initial residual = 0.00479185, Final residual = 2.33108e-05, No Iterations 8
bounding nuTilda, min: -0.000246302 max: 0.407231 average: 0.0795164
ExecutionTime = 3.2 s  ClockTime = 3 s

Time = 35

smoothSolver:  Solving for Ux, Initial residual = 0.00378593, Final residual = 1.53733e-05, No Iterations 8
smoothSolver:  Solving for Uy, Initial residual = 0.00211469, Final residual = 9.67793e-06, No Iterations 8
GAMG:  Solving for p, Initial residual = 0.00634996, Final residual = 4.80139e-05, No Iterations 5
time step continuity errors : sum local = 1.91679e-05, global = -2.69188e-16, cumulative = 2.62613e-16
smoothSolver:  Solving for nuTilda, Initial residual = 0.00461954, Final residual = 2.24456e-05, No Iterations 8
bounding nuTilda, min: -4.31215e-05 max: 0.407311 average: 0.0787315
ExecutionTime = 3.29 s  ClockTime = 3 s

forces wings output:
    sum of forces:
        pressure : (2.48639 22.8784 7.01872e-20)
        viscous  : (0.437233 -0.044259 -2.07923e-21)
        porous   : (0 0 0)
    sum of moments:
        pressure : (-1.14392 0.12432 5.90499)
        viscous  : (0.00221295 0.0218617 -0.0380934)
        porous   : (0 0 0)

Time = 36

smoothSolver:  Solving for Ux, Initial residual = 0.00367824, Final residual = 1.4793e-05, No Iterations 8
smoothSolver:  Solving for Uy, Initial residual = 0.00208504, Final residual = 9.60914e-06, No Iterations 8
GAMG:  Solving for p, Initial residual = 0.00625363, Final residual = 4.70701e-05, No Iterations 5
time step continuity errors : sum local = 1.87891e-05, global = -9.00619e-17, cumulative = 1.72552e-16
smoothSolver:  Solving for nuTilda, Initial residual = 0.0044456, Final residual = 2.15569e-05, No Iterations 8
bounding nuTilda, min: -5.34005e-05 max: 0.407375 average: 0.0779611
ExecutionTime = 3.38 s  ClockTime = 3 s

Time = 37

smoothSolver:  Solving for Ux, Initial residual = 0.00362591, Final residual = 1.4619e-05, No Iterations 8
smoothSolver:  Solving for Uy, Initial residual = 0.00179041, Final residual = 8.67227e-06, No Iterations 8
GAMG:  Solving for p, Initial residual = 0.00571933, Final residual = 3.35911e-05, No Iterations 5
time step continuity errors : sum local = 1.32367e-05, global = 9.17599e-17, cumulative = 2.64311e-16
smoothSolver:  Solving for nuTilda, Initial residual = 0.00428725, Final residual = 2.0782e-05, No Iterations 8
bounding nuTilda, min: -7.92861e-05 max: 0.407422 average: 0.0772121
ExecutionTime = 3.47 s  ClockTime = 3 s

Time = 38

smoothSolver:  Solving for Ux, Initial residual = 0.00350638, Final residual = 1.43604e-05, No Iterations 8
smoothSolver:  Solving for Uy, Initial residual = 0.00166307, Final residual = 8.10935e-06, No Iterations 8
GAMG:  Solving for p, Initial residual = 0.00480679, Final residual = 4.28969e-05, No Iterations 4
time step continuity errors : sum local = 1.69461e-05, global = -1.54498e-17, cumulative = 2.48862e-16
smoothSolver:  Solving for nuTilda, Initial residual = 0.00412829, Final residual = 1.99921e-05, No Iterations 8
bounding nuTilda, min: -9.89091e-05 max: 0.407453 average: 0.0764764
ExecutionTime = 3.55 s  ClockTime = 3 s

Time = 39

smoothSolver:  Solving for Ux, Initial residual = 0.00335906, Final residual = 1.39924e-05, No Iterations 8
smoothSolver:  Solving for Uy, Initial residual = 0.00156605, Final residual = 7.74643e-06, No Iterations 8
GAMG:  Solving for p, Initial residual = 0.00430133, Final residual = 3.37205e-05, No Iterations 5
time step continuity errors : sum local = 1.34915e-05, global = -8.74523e-17, cumulative = 1.61409e-16
smoothSolver:  Solving for nuTilda, Initial residual = 0.00398411, Final residual = 1.92962e-05, No Iterations 8
bounding nuTilda, min: -0.000102902 max: 0.407466 average: 0.0757605
ExecutionTime = 3.63 s  ClockTime = 3 s

Time = 40

smoothSolver:  Solving for Ux, Initial residual = 0.00323573, Final residual = 1.36014e-05, No Iterations 8
smoothSolver:  Solving for Uy, Initial residual = 0.00147631, Final residual = 7.49349e-06, No Iterations 8
GAMG:  Solving for p, Initial residual = 0.00394387, Final residual = 3.61349e-05, No Iterations 5
time step continuity errors : sum local = 1.4326e-05, global = 5.38417e-17, cumulative = 2.15251e-16
smoothSolver:  Solving for nuTilda, Initial residual = 0.00384248, Final residual = 1.85989e-05, No Iterations 8
bounding nuTilda, min: -0.000126313 max: 0.407461 average: 0.075057
ExecutionTime = 3.72 s  ClockTime = 3 s

forces wings output:
    sum of forces:
        pressure : (1.88846 21.5011 5.3127e-20)
        viscous  : (0.425639 -0.0431094 -1.6013e-21)
        porous   : (0 0 0)
    sum of moments:
        pressure : (-1.07505 0.0944228 4.70592)
        viscous  : (0.00215547 0.021282 -0.0371433)
        porous   : (0 0 0)

Time = 41

smoothSolver:  Solving for Ux, Initial residual = 0.00315483, Final residual = 1.32578e-05, No Iterations 8
smoothSolver:  Solving for Uy, Initial residual = 0.00147696, Final residual = 7.43274e-06, No Iterations 8
GAMG:  Solving for p, Initial residual = 0.00359439, Final residual = 3.18148e-05, No Iterations 5
time step continuity errors : sum local = 1.26454e-05, global = 1.61997e-16, cumulative = 3.77248e-16
smoothSolver:  Solving for nuTilda, Initial residual = 0.00371509, Final residual = 1.79746e-05, No Iterations 8
bounding nuTilda, min: -0.000123314 max: 0.407435 average: 0.0743714
ExecutionTime = 3.8 s  ClockTime = 4 s

Time = 42

smoothSolver:  Solving for Ux, Initial residual = 0.00311118, Final residual = 1.30288e-05, No Iterations 8
smoothSolver:  Solving for Uy, Initial residual = 0.0014053, Final residual = 7.06143e-06, No Iterations 8
GAMG:  Solving for p, Initial residual = 0.00331268, Final residual = 3.06553e-05, No Iterations 4
time step continuity errors : sum local = 1.21393e-05, global = 5.61327e-17, cumulative = 4.33381e-16
smoothSolver:  Solving for nuTilda, Initial residual = 0.00358901, Final residual = 1.73447e-05, No Iterations 8
bounding nuTilda, min: -0.000150375 max: 0.407396 average: 0.0736978
ExecutionTime = 3.89 s  ClockTime = 4 s

Time = 43

smoothSolver:  Solving for Ux, Initial residual = 0.00307436, Final residual = 1.28547e-05, No Iterations 8
smoothSolver:  Solving for Uy, Initial residual = 0.00134296, Final residual = 6.90732e-06, No Iterations 8
GAMG:  Solving for p, Initial residual = 0.00302415, Final residual = 2.07501e-05, No Iterations 5
time step continuity errors : sum local = 8.24579e-06, global = 1.31031e-16, cumulative = 5.64412e-16
smoothSolver:  Solving for nuTilda, Initial residual = 0.00347219, Final residual = 1.67668e-05, No Iterations 8
bounding nuTilda, min: -0.000138309 max: 0.407352 average: 0.0730405
ExecutionTime = 3.98 s  ClockTime = 4 s

Time = 44

smoothSolver:  Solving for Ux, Initial residual = 0.00300924, Final residual = 1.26414e-05, No Iterations 8
smoothSolver:  Solving for Uy, Initial residual = 0.00132183, Final residual = 6.96575e-06, No Iterations 8
GAMG:  Solving for p, Initial residual = 0.0028618, Final residual = 2.4155e-05, No Iterations 5
time step continuity errors : sum local = 9.58724e-06, global = -3.5468e-17, cumulative = 5.28944e-16
smoothSolver:  Solving for nuTilda, Initial residual = 0.00335727, Final residual = 1.61988e-05, No Iterations 8
bounding nuTilda, min: -0.000171885 max: 0.407316 average: 0.0723949
ExecutionTime = 4.06 s  ClockTime = 4 s

Time = 45

smoothSolver:  Solving for Ux, Initial residual = 0.00293141, Final residual = 1.23944e-05, No Iterations 8
smoothSolver:  Solving for Uy, Initial residual = 0.0013219, Final residual = 7.00292e-06, No Iterations 8
GAMG:  Solving for p, Initial residual = 0.00271233, Final residual = 2.24385e-05, No Iterations 5
time step continuity errors : sum local = 8.9118e-06, global = 8.57916e-17, cumulative = 6.14736e-16
smoothSolver:  Solving for nuTilda, Initial residual = 0.00324937, Final residual = 1.56739e-05, No Iterations 8
bounding nuTilda, min: -0.000149228 max: 0.407295 average: 0.0717639
ExecutionTime = 4.15 s  ClockTime = 4 s

forces wings output:
    sum of forces:
        pressure : (1.93745 21.9384 5.09545e-20)
        viscous  : (0.413672 -0.0418302 -1.79627e-21)
        porous   : (0 0 0)
    sum of moments:
        pressure : (-1.09692 0.0968725 4.82156)
        viscous  : (0.00209151 0.0206836 -0.0361276)
        porous   : (0 0 0)

Time = 46

smoothSolver:  Solving for Ux, Initial residual = 0.00286567, Final residual = 1.21778e-05, No Iterations 8
smoothSolver:  Solving for Uy, Initial residual = 0.00132763, Final residual = 6.99253e-06, No Iterations 8
GAMG:  Solving for p, Initial residual = 0.00252899, Final residual = 2.00627e-05, No Iterations 4
time step continuity errors : sum local = 7.91422e-06, global = 1.15847e-16, cumulative = 7.30583e-16
smoothSolver:  Solving for nuTilda, Initial residual = 0.00314486, Final residual = 1.51668e-05, No Iterations 8
bounding nuTilda, min: -0.000188151 max: 0.407287 average: 0.0711444
ExecutionTime = 4.23 s  ClockTime = 4 s

Time = 47

smoothSolver:  Solving for Ux, Initial residual = 0.00282118, Final residual = 1.20231e-05, No Iterations 8
smoothSolver:  Solving for Uy, Initial residual = 0.00130284, Final residual = 6.90392e-06, No Iterations 8
GAMG:  Solving for p, Initial residual = 0.00239177, Final residual = 2.38732e-05, No Iterations 4
time step continuity errors : sum local = 9.42206e-06, global = -2.50993e-18, cumulative = 7.28073e-16
smoothSolver:  Solving for nuTilda, Initial residual = 0.00304665, Final residual = 1.46877e-05, No Iterations 8
bounding nuTilda, min: -0.00015761 max: 0.407287 average: 0.070538
ExecutionTime = 4.31 s  ClockTime = 4 s

Time = 48

smoothSolver:  Solving for Ux, Initial residual = 0.00277904, Final residual = 1.18837e-05, No Iterations 8
smoothSolver:  Solving for Uy, Initial residual = 0.00126042, Final residual = 6.78924e-06, No Iterations 8
GAMG:  Solving for p, Initial residual = 0.00227448, Final residual = 1.90499e-05, No Iterations 4
time step continuity errors : sum local = 7.50518e-06, global = -4.6436e-17, cumulative = 6.81637e-16
smoothSolver:  Solving for nuTilda, Initial residual = 0.00295276, Final residual = 1.42229e-05, No Iterations 8
bounding nuTilda, min: -0.000201221 max: 0.40729 average: 0.0699428
ExecutionTime = 4.4 s  ClockTime = 4 s

Time = 49

smoothSolver:  Solving for Ux, Initial residual = 0.0027367, Final residual = 1.17312e-05, No Iterations 8
smoothSolver:  Solving for Uy, Initial residual = 0.00124893, Final residual = 6.78442e-06, No Iterations 8
GAMG:  Solving for p, Initial residual = 0.00216266, Final residual = 1.62054e-05, No Iterations 4
time step continuity errors : sum local = 6.39435e-06, global = 7.64519e-17, cumulative = 7.58089e-16
smoothSolver:  Solving for nuTilda, Initial residual = 0.00286381, Final residual = 1.3784e-05, No Iterations 8
bounding nuTilda, min: -0.000162909 max: 0.40729 average: 0.0693595
ExecutionTime = 4.48 s  ClockTime = 4 s

Time = 50

smoothSolver:  Solving for Ux, Initial residual = 0.00269235, Final residual = 1.15389e-05, No Iterations 8
smoothSolver:  Solving for Uy, Initial residual = 0.00125473, Final residual = 6.84697e-06, No Iterations 8
GAMG:  Solving for p, Initial residual = 0.0021018, Final residual = 1.86463e-05, No Iterations 4
time step continuity errors : sum local = 7.34147e-06, global = 3.376e-16, cumulative = 1.09569e-15
smoothSolver:  Solving for nuTilda, Initial residual = 0.00277885, Final residual = 1.33643e-05, No Iterations 8
bounding nuTilda, min: -0.000212562 max: 0.407286 average: 0.0687871
ExecutionTime = 4.56 s  ClockTime = 4 s

forces wings output:
    sum of forces:
        pressure : (2.027 22.5323 5.11314e-20)
        viscous  : (0.40279 -0.0406481 -1.88727e-21)
        porous   : (0 0 0)
    sum of moments:
        pressure : (-1.12662 0.10135 5.02191)
        viscous  : (0.0020324 0.0201395 -0.0351865)
        porous   : (0 0 0)

Time = 51

smoothSolver:  Solving for Ux, Initial residual = 0.00264567, Final residual = 1.13361e-05, No Iterations 8
smoothSolver:  Solving for Uy, Initial residual = 0.00126055, Final residual = 6.90515e-06, No Iterations 8
GAMG:  Solving for p, Initial residual = 0.00204603, Final residual = 1.8237e-05, No Iterations 4
time step continuity errors : sum local = 7.17695e-06, global = -9.79653e-17, cumulative = 9.97724e-16
smoothSolver:  Solving for nuTilda, Initial residual = 0.00269799, Final residual = 1.29642e-05, No Iterations 8
bounding nuTilda, min: -0.000165474 max: 0.407281 average: 0.0682256
ExecutionTime = 4.65 s  ClockTime = 4 s

Time = 52

smoothSolver:  Solving for Ux, Initial residual = 0.00260335, Final residual = 1.11634e-05, No Iterations 8
smoothSolver:  Solving for Uy, Initial residual = 0.00125992, Final residual = 6.90537e-06, No Iterations 8
GAMG:  Solving for p, Initial residual = 0.00199997, Final residual = 1.80396e-05, No Iterations 4
time step continuity errors : sum local = 7.11492e-06, global = 2.19464e-16, cumulative = 1.21719e-15
smoothSolver:  Solving for nuTilda, Initial residual = 0.00262069, Final residual = 1.25802e-05, No Iterations 8
bounding nuTilda, min: -0.00022122 max: 0.407276 average: 0.0676745
ExecutionTime = 4.73 s  ClockTime = 5 s

Time = 53

smoothSolver:  Solving for Ux, Initial residual = 0.00257024, Final residual = 1.10302e-05, No Iterations 8
smoothSolver:  Solving for Uy, Initial residual = 0.00124799, Final residual = 6.84829e-06, No Iterations 8
GAMG:  Solving for p, Initial residual = 0.00195092, Final residual = 1.76554e-05, No Iterations 4
time step continuity errors : sum local = 6.96007e-06, global = -5.00783e-17, cumulative = 1.16711e-15
smoothSolver:  Solving for nuTilda, Initial residual = 0.00254659, Final residual = 1.22106e-05, No Iterations 8
bounding nuTilda, min: -0.000166482 max: 0.407271 average: 0.0671337
ExecutionTime = 4.81 s  ClockTime = 5 s

Time = 54

smoothSolver:  Solving for Ux, Initial residual = 0.00254032, Final residual = 1.09126e-05, No Iterations 8
smoothSolver:  Solving for Uy, Initial residual = 0.00123402, Final residual = 6.79222e-06, No Iterations 8
GAMG:  Solving for p, Initial residual = 0.00190576, Final residual = 1.72979e-05, No Iterations 4
time step continuity errors : sum local = 6.81809e-06, global = 1.12365e-16, cumulative = 1.27947e-15
smoothSolver:  Solving for nuTilda, Initial residual = 0.00247497, Final residual = 1.18559e-05, No Iterations 8
bounding nuTilda, min: -0.000227766 max: 0.407269 average: 0.0666028
ExecutionTime = 4.9 s  ClockTime = 5 s

Time = 55

smoothSolver:  Solving for Ux, Initial residual = 0.00250876, Final residual = 1.07887e-05, No Iterations 8
smoothSolver:  Solving for Uy, Initial residual = 0.00122758, Final residual = 6.77722e-06, No Iterations 8
GAMG:  Solving for p, Initial residual = 0.00187583, Final residual = 1.72776e-05, No Iterations 4
time step continuity errors : sum local = 6.81332e-06, global = -3.29106e-17, cumulative = 1.24656e-15
smoothSolver:  Solving for nuTilda, Initial residual = 0.00240623, Final residual = 1.15123e-05, No Iterations 8
bounding nuTilda, min: -0.000165911 max: 0.407267 average: 0.0660816
ExecutionTime = 4.98 s  ClockTime = 5 s

forces wings output:
    sum of forces:
        pressure : (2.02368 22.9292 5.16044e-20)
        viscous  : (0.392193 -0.0394309 -1.93495e-21)
        porous   : (0 0 0)
    sum of moments:
        pressure : (-1.14646 0.101184 5.03692)
        viscous  : (0.00197155 0.0196097 -0.0342545)
        porous   : (0 0 0)

Time = 56

smoothSolver:  Solving for Ux, Initial residual = 0.00247436, Final residual = 1.06487e-05, No Iterations 8
smoothSolver:  Solving for Uy, Initial residual = 0.00122807, Final residual = 6.79189e-06, No Iterations 8
GAMG:  Solving for p, Initial residual = 0.00184804, Final residual = 1.81254e-05, No Iterations 4
time step continuity errors : sum local = 7.14613e-06, global = -2.30649e-16, cumulative = 1.01591e-15
smoothSolver:  Solving for nuTilda, Initial residual = 0.00233908, Final residual = 1.11818e-05, No Iterations 8
bounding nuTilda, min: -0.000233284 max: 0.407266 average: 0.0655697
ExecutionTime = 5.07 s  ClockTime = 5 s

Time = 57

smoothSolver:  Solving for Ux, Initial residual = 0.00244023, Final residual = 1.05046e-05, No Iterations 8
smoothSolver:  Solving for Uy, Initial residual = 0.00123176, Final residual = 6.81711e-06, No Iterations 8
GAMG:  Solving for p, Initial residual = 0.001815, Final residual = 1.80293e-05, No Iterations 4
time step continuity errors : sum local = 7.08953e-06, global = -1.0879e-16, cumulative = 9.07125e-16
smoothSolver:  Solving for nuTilda, Initial residual = 0.00227445, Final residual = 1.08641e-05, No Iterations 8
bounding nuTilda, min: -0.000163899 max: 0.407265 average: 0.065067
ExecutionTime = 5.15 s  ClockTime = 5 s

Time = 58

smoothSolver:  Solving for Ux, Initial residual = 0.00240906, Final residual = 1.03742e-05, No Iterations 8
smoothSolver:  Solving for Uy, Initial residual = 0.00123222, Final residual = 6.82193e-06, No Iterations 8
GAMG:  Solving for p, Initial residual = 0.00178584, Final residual = 1.71116e-05, No Iterations 4
time step continuity errors : sum local = 6.73313e-06, global = -1.64373e-16, cumulative = 7.42751e-16
smoothSolver:  Solving for nuTilda, Initial residual = 0.00221223, Final residual = 1.05591e-05, No Iterations 8
bounding nuTilda, min: -0.00023766 max: 0.407264 average: 0.0645731
ExecutionTime = 5.23 s  ClockTime = 5 s

Time = 59

smoothSolver:  Solving for Ux, Initial residual = 0.00238182, Final residual = 1.02618e-05, No Iterations 8
smoothSolver:  Solving for Uy, Initial residual = 0.00122636, Final residual = 6.79555e-06, No Iterations 8
GAMG:  Solving for p, Initial residual = 0.00175716, Final residual = 1.6458e-05, No Iterations 4
time step continuity errors : sum local = 6.47691e-06, global = -2.53189e-17, cumulative = 7.17432e-16
smoothSolver:  Solving for nuTilda, Initial residual = 0.00215276, Final residual = 1.02661e-05, No Iterations 8
bounding nuTilda, min: -0.000161097 max: 0.407264 average: 0.0640878
ExecutionTime = 5.31 s  ClockTime = 5 s

Time = 60

smoothSolver:  Solving for Ux, Initial residual = 0.00235647, Final residual = 1.01577e-05, No Iterations 8
smoothSolver:  Solving for Uy, Initial residual = 0.0012177, Final residual = 6.75607e-06, No Iterations 8
GAMG:  Solving for p, Initial residual = 0.00172828, Final residual = 1.63445e-05, No Iterations 4
time step continuity errors : sum local = 6.43322e-06, global = -1.60064e-17, cumulative = 7.01426e-16
smoothSolver:  Solving for nuTilda, Initial residual = 0.00209657, Final residual = 9.98439e-06, No Iterations 8
bounding nuTilda, min: -0.00024093 max: 0.407265 average: 0.063611
ExecutionTime = 5.39 s  ClockTime = 5 s

forces wings output:
    sum of forces:
        pressure : (2.02891 23.3314 5.26113e-20)
        viscous  : (0.382117 -0.0382439 -1.98348e-21)
        porous   : (0 0 0)
    sum of moments:
        pressure : (-1.16657 0.101445 5.06831)
        viscous  : (0.0019122 0.0191058 -0.0333623)
        porous   : (0 0 0)

Time = 61

smoothSolver:  Solving for Ux, Initial residual = 0.00233046, Final residual = 1.00494e-05, No Iterations 8
smoothSolver:  Solving for Uy, Initial residual = 0.00121132, Final residual = 6.72868e-06, No Iterations 8
GAMG:  Solving for p, Initial residual = 0.00170036, Final residual = 1.66541e-05, No Iterations 4
time step continuity errors : sum local = 6.55582e-06, global = -2.32066e-16, cumulative = 4.6936e-16
smoothSolver:  Solving for nuTilda, Initial residual = 0.00204203, Final residual = 9.7151e-06, No Iterations 8
bounding nuTilda, min: -0.000157698 max: 0.407266 average: 0.0631423
ExecutionTime = 5.48 s  ClockTime = 5 s

Time = 62

smoothSolver:  Solving for Ux, Initial residual = 0.00230325, Final residual = 9.93408e-06, No Iterations 8
smoothSolver:  Solving for Uy, Initial residual = 0.00120872, Final residual = 6.71778e-06, No Iterations 8
GAMG:  Solving for p, Initial residual = 0.00167388, Final residual = 1.11817e-05, No Iterations 5
time step continuity errors : sum local = 4.42506e-06, global = 3.79575e-17, cumulative = 5.07317e-16
smoothSolver:  Solving for nuTilda, Initial residual = 0.00198935, Final residual = 9.45754e-06, No Iterations 8
bounding nuTilda, min: -0.000243617 max: 0.407268 average: 0.0626816
ExecutionTime = 5.56 s  ClockTime = 5 s

Time = 63

smoothSolver:  Solving for Ux, Initial residual = 0.00227661, Final residual = 9.82191e-06, No Iterations 8
smoothSolver:  Solving for Uy, Initial residual = 0.0012079, Final residual = 6.71286e-06, No Iterations 8
GAMG:  Solving for p, Initial residual = 0.00165114, Final residual = 1.43842e-05, No Iterations 4
time step continuity errors : sum local = 5.67005e-06, global = 1.11513e-16, cumulative = 6.1883e-16
smoothSolver:  Solving for nuTilda, Initial residual = 0.00193924, Final residual = 9.21023e-06, No Iterations 8
bounding nuTilda, min: -0.000153842 max: 0.407269 average: 0.0622287
ExecutionTime = 5.64 s  ClockTime = 5 s

Time = 64

smoothSolver:  Solving for Ux, Initial residual = 0.00225085, Final residual = 9.71237e-06, No Iterations 8
smoothSolver:  Solving for Uy, Initial residual = 0.00120745, Final residual = 6.70595e-06, No Iterations 8
GAMG:  Solving for p, Initial residual = 0.00162741, Final residual = 6.51251e-06, No Iterations 5
time step continuity errors : sum local = 2.56216e-06, global = 3.76559e-17, cumulative = 6.56486e-16
smoothSolver:  Solving for nuTilda, Initial residual = 0.00189122, Final residual = 8.97245e-06, No Iterations 8
bounding nuTilda, min: -0.000245883 max: 0.407271 average: 0.0617834
ExecutionTime = 5.73 s  ClockTime = 6 s

Time = 65

smoothSolver:  Solving for Ux, Initial residual = 0.00222782, Final residual = 9.61476e-06, No Iterations 8
smoothSolver:  Solving for Uy, Initial residual = 0.00120399, Final residual = 6.68524e-06, No Iterations 8
GAMG:  Solving for p, Initial residual = 0.00160256, Final residual = 1.55596e-05, No Iterations 4
time step continuity errors : sum local = 6.12901e-06, global = 1.50104e-16, cumulative = 8.0659e-16
smoothSolver:  Solving for nuTilda, Initial residual = 0.00184529, Final residual = 8.74328e-06, No Iterations 8
bounding nuTilda, min: -0.000149646 max: 0.407272 average: 0.0613454
ExecutionTime = 5.81 s  ClockTime = 6 s

forces wings output:
    sum of forces:
        pressure : (2.05957 23.7705 5.30823e-20)
        viscous  : (0.37255 -0.0370767 -2.05399e-21)
        porous   : (0 0 0)
    sum of moments:
        pressure : (-1.18852 0.102978 5.14954)
        viscous  : (0.00185383 0.0186275 -0.0325103)
        porous   : (0 0 0)

Time = 66

smoothSolver:  Solving for Ux, Initial residual = 0.00220535, Final residual = 9.51773e-06, No Iterations 8
smoothSolver:  Solving for Uy, Initial residual = 0.00119991, Final residual = 6.66092e-06, No Iterations 8
GAMG:  Solving for p, Initial residual = 0.00157624, Final residual = 7.08639e-06, No Iterations 5
time step continuity errors : sum local = 2.78832e-06, global = 3.26576e-16, cumulative = 1.13317e-15
smoothSolver:  Solving for nuTilda, Initial residual = 0.00180108, Final residual = 8.522e-06, No Iterations 8
bounding nuTilda, min: -0.000247731 max: 0.407274 average: 0.0609147
ExecutionTime = 5.91 s  ClockTime = 6 s

Time = 67

smoothSolver:  Solving for Ux, Initial residual = 0.00218426, Final residual = 9.42792e-06, No Iterations 8
smoothSolver:  Solving for Uy, Initial residual = 0.00119432, Final residual = 6.63157e-06, No Iterations 8
GAMG:  Solving for p, Initial residual = 0.00155168, Final residual = 1.53659e-05, No Iterations 4
time step continuity errors : sum local = 6.05934e-06, global = 3.88602e-17, cumulative = 1.17203e-15
smoothSolver:  Solving for nuTilda, Initial residual = 0.00175852, Final residual = 8.30834e-06, No Iterations 8
bounding nuTilda, min: -0.00014545 max: 0.407276 average: 0.060491
ExecutionTime = 5.99 s  ClockTime = 6 s

Time = 68

smoothSolver:  Solving for Ux, Initial residual = 0.00216282, Final residual = 9.334e-06, No Iterations 8
smoothSolver:  Solving for Uy, Initial residual = 0.00119076, Final residual = 6.60958e-06, No Iterations 8
GAMG:  Solving for p, Initial residual = 0.00152841, Final residual = 6.62194e-06, No Iterations 5
time step continuity errors : sum local = 2.60624e-06, global = 2.71481e-16, cumulative = 1.44351e-15
smoothSolver:  Solving for nuTilda, Initial residual = 0.00171762, Final residual = 8.10188e-06, No Iterations 8
bounding nuTilda, min: -0.000249059 max: 0.407278 average: 0.0600742
ExecutionTime = 6.07 s  ClockTime = 6 s

Time = 69

smoothSolver:  Solving for Ux, Initial residual = 0.00214233, Final residual = 9.24484e-06, No Iterations 8
smoothSolver:  Solving for Uy, Initial residual = 0.00118694, Final residual = 6.58599e-06, No Iterations 8
GAMG:  Solving for p, Initial residual = 0.00150734, Final residual = 6.82607e-06, No Iterations 5
time step continuity errors : sum local = 2.68662e-06, global = 2.07267e-16, cumulative = 1.65077e-15
smoothSolver:  Solving for nuTilda, Initial residual = 0.00167791, Final residual = 7.90016e-06, No Iterations 8
bounding nuTilda, min: -0.000141333 max: 0.40728 average: 0.059664
ExecutionTime = 6.15 s  ClockTime = 6 s

Time = 70

smoothSolver:  Solving for Ux, Initial residual = 0.00212203, Final residual = 9.15532e-06, No Iterations 8
smoothSolver:  Solving for Uy, Initial residual = 0.00118452, Final residual = 6.56599e-06, No Iterations 8
GAMG:  Solving for p, Initial residual = 0.00148452, Final residual = 7.25995e-06, No Iterations 5
time step continuity errors : sum local = 2.85786e-06, global = 1.48887e-16, cumulative = 1.79966e-15
smoothSolver:  Solving for nuTilda, Initial residual = 0.00163942, Final residual = 7.70374e-06, No Iterations 8
bounding nuTilda, min: -0.000250041 max: 0.407283 average: 0.0592603
ExecutionTime = 6.24 s  ClockTime = 6 s

forces wings output:
    sum of forces:
        pressure : (2.08617 24.2353 5.34585e-20)
        viscous  : (0.363458 -0.0359356 -2.09614e-21)
        porous   : (0 0 0)
    sum of moments:
        pressure : (-1.21177 0.104308 5.2245)
        viscous  : (0.00179678 0.0181729 -0.0316967)
        porous   : (0 0 0)

Time = 71

smoothSolver:  Solving for Ux, Initial residual = 0.00210242, Final residual = 9.06795e-06, No Iterations 8
smoothSolver:  Solving for Uy, Initial residual = 0.00118202, Final residual = 6.54499e-06, No Iterations 8
GAMG:  Solving for p, Initial residual = 0.0014626, Final residual = 7.64073e-06, No Iterations 5
time step continuity errors : sum local = 3.00892e-06, global = 1.03283e-16, cumulative = 1.90294e-15
smoothSolver:  Solving for nuTilda, Initial residual = 0.0016023, Final residual = 7.51264e-06, No Iterations 8
bounding nuTilda, min: -0.000137277 max: 0.407285 average: 0.058863
ExecutionTime = 6.33 s  ClockTime = 6 s

Time = 72

smoothSolver:  Solving for Ux, Initial residual = 0.00208384, Final residual = 8.98572e-06, No Iterations 8
smoothSolver:  Solving for Uy, Initial residual = 0.00117844, Final residual = 6.51914e-06, No Iterations 8
GAMG:  Solving for p, Initial residual = 0.00144176, Final residual = 7.79951e-06, No Iterations 5
time step continuity errors : sum local = 3.07283e-06, global = 2.16992e-16, cumulative = 2.11994e-15
smoothSolver:  Solving for nuTilda, Initial residual = 0.00156647, Final residual = 7.32771e-06, No Iterations 8
bounding nuTilda, min: -0.000250579 max: 0.407288 average: 0.058472
ExecutionTime = 6.42 s  ClockTime = 6 s

Time = 73

smoothSolver:  Solving for Ux, Initial residual = 0.00206629, Final residual = 8.90811e-06, No Iterations 8
smoothSolver:  Solving for Uy, Initial residual = 0.00117369, Final residual = 6.48864e-06, No Iterations 8
GAMG:  Solving for p, Initial residual = 0.00142275, Final residual = 7.74251e-06, No Iterations 5
time step continuity errors : sum local = 3.05086e-06, global = -2.8301e-17, cumulative = 2.09163e-15
smoothSolver:  Solving for nuTilda, Initial residual = 0.00153165, Final residual = 7.14834e-06, No Iterations 8
bounding nuTilda, min: -0.00013352 max: 0.407291 average: 0.058087
ExecutionTime = 6.5 s  ClockTime = 6 s

Time = 74

smoothSolver:  Solving for Ux, Initial residual = 0.00204935, Final residual = 8.83252e-06, No Iterations 8
smoothSolver:  Solving for Uy, Initial residual = 0.00116889, Final residual = 6.45672e-06, No Iterations 8
GAMG:  Solving for p, Initial residual = 0.00140479, Final residual = 7.55998e-06, No Iterations 5
time step continuity errors : sum local = 2.9787e-06, global = -3.20748e-16, cumulative = 1.77089e-15
smoothSolver:  Solving for nuTilda, Initial residual = 0.00149781, Final residual = 6.97465e-06, No Iterations 8
bounding nuTilda, min: -0.000250414 max: 0.407293 average: 0.0577079
ExecutionTime = 6.6 s  ClockTime = 6 s

Time = 75

smoothSolver:  Solving for Ux, Initial residual = 0.00203249, Final residual = 8.75657e-06, No Iterations 8
smoothSolver:  Solving for Uy, Initial residual = 0.00116474, Final residual = 6.4268e-06, No Iterations 8
GAMG:  Solving for p, Initial residual = 0.00138688, Final residual = 7.39214e-06, No Iterations 5
time step continuity errors : sum local = 2.91249e-06, global = -1.72003e-17, cumulative = 1.75369e-15
smoothSolver:  Solving for nuTilda, Initial residual = 0.00146463, Final residual = 6.80579e-06, No Iterations 8
bounding nuTilda, min: -0.000129902 max: 0.407296 average: 0.0573347
ExecutionTime = 6.68 s  ClockTime = 6 s

forces wings output:
    sum of forces:
        pressure : (2.10962 24.7144 5.40366e-20)
        viscous  : (0.354814 -0.0348135 -2.14128e-21)
        porous   : (0 0 0)
    sum of moments:
        pressure : (-1.23572 0.105481 5.29431)
        viscous  : (0.00174068 0.0177407 -0.0309209)
        porous   : (0 0 0)

Time = 76

smoothSolver:  Solving for Ux, Initial residual = 0.00201591, Final residual = 8.68095e-06, No Iterations 8
smoothSolver:  Solving for Uy, Initial residual = 0.00116146, Final residual = 6.39925e-06, No Iterations 8
GAMG:  Solving for p, Initial residual = 0.00136943, Final residual = 7.37683e-06, No Iterations 5
time step continuity errors : sum local = 2.90693e-06, global = 5.14787e-17, cumulative = 1.80516e-15
smoothSolver:  Solving for nuTilda, Initial residual = 0.00143219, Final residual = 6.64163e-06, No Iterations 8
bounding nuTilda, min: -0.000249623 max: 0.407299 average: 0.0569671
ExecutionTime = 6.77 s  ClockTime = 7 s

Time = 77

smoothSolver:  Solving for Ux, Initial residual = 0.0019999, Final residual = 8.60703e-06, No Iterations 8
smoothSolver:  Solving for Uy, Initial residual = 0.00115819, Final residual = 6.37182e-06, No Iterations 8
GAMG:  Solving for p, Initial residual = 0.00135206, Final residual = 7.48251e-06, No Iterations 5
time step continuity errors : sum local = 2.94915e-06, global = -2.32145e-16, cumulative = 1.57302e-15
smoothSolver:  Solving for nuTilda, Initial residual = 0.0014004, Final residual = 6.48144e-06, No Iterations 8
bounding nuTilda, min: -0.000126214 max: 0.407302 average: 0.0566051
ExecutionTime = 6.85 s  ClockTime = 7 s

Time = 78

smoothSolver:  Solving for Ux, Initial residual = 0.00198463, Final residual = 8.53654e-06, No Iterations 8
smoothSolver:  Solving for Uy, Initial residual = 0.00115441, Final residual = 6.34191e-06, No Iterations 8
GAMG:  Solving for p, Initial residual = 0.00133626, Final residual = 7.58348e-06, No Iterations 5
time step continuity errors : sum local = 2.98958e-06, global = 1.92673e-16, cumulative = 1.76569e-15
smoothSolver:  Solving for nuTilda, Initial residual = 0.00136965, Final residual = 6.32548e-06, No Iterations 8
bounding nuTilda, min: -0.000248385 max: 0.407304 average: 0.0562485
ExecutionTime = 6.94 s  ClockTime = 7 s

Time = 79

smoothSolver:  Solving for Ux, Initial residual = 0.00197007, Final residual = 8.46941e-06, No Iterations 8
smoothSolver:  Solving for Uy, Initial residual = 0.00114977, Final residual = 6.30881e-06, No Iterations 8
GAMG:  Solving for p, Initial residual = 0.00132147, Final residual = 7.57473e-06, No Iterations 5
time step continuity errors : sum local = 2.98689e-06, global = 2.17217e-16, cumulative = 1.98291e-15
smoothSolver:  Solving for nuTilda, Initial residual = 0.00133928, Final residual = 6.17586e-06, No Iterations 8
bounding nuTilda, min: -0.000122794 max: 0.407307 average: 0.0558973
ExecutionTime = 7.02 s  ClockTime = 7 s

Time = 80

smoothSolver:  Solving for Ux, Initial residual = 0.00195604, Final residual = 8.40458e-06, No Iterations 8
smoothSolver:  Solving for Uy, Initial residual = 0.00114484, Final residual = 6.274e-06, No Iterations 8
GAMG:  Solving for p, Initial residual = 0.00130815, Final residual = 7.47789e-06, No Iterations 5
time step continuity errors : sum local = 2.94972e-06, global = -1.24129e-16, cumulative = 1.85878e-15
smoothSolver:  Solving for nuTilda, Initial residual = 0.00130959, Final residual = 6.03063e-06, No Iterations 8
bounding nuTilda, min: -0.000247101 max: 0.40731 average: 0.0555513
ExecutionTime = 7.11 s  ClockTime = 7 s

forces wings output:
    sum of forces:
        pressure : (2.13338 25.2074 5.46302e-20)
        viscous  : (0.346602 -0.0337135 -2.1864e-21)
        porous   : (0 0 0)
    sum of moments:
        pressure : (-1.26037 0.106669 5.36544)
        viscous  : (0.00168567 0.0173301 -0.0301808)
        porous   : (0 0 0)

Time = 81

smoothSolver:  Solving for Ux, Initial residual = 0.00194225, Final residual = 8.34089e-06, No Iterations 8
smoothSolver:  Solving for Uy, Initial residual = 0.00114, Final residual = 6.23952e-06, No Iterations 8
GAMG:  Solving for p, Initial residual = 0.00129532, Final residual = 7.38085e-06, No Iterations 5
time step continuity errors : sum local = 2.91273e-06, global = 7.75571e-17, cumulative = 1.93634e-15
smoothSolver:  Solving for nuTilda, Initial residual = 0.00128116, Final residual = 5.88952e-06, No Iterations 8
bounding nuTilda, min: -0.000119648 max: 0.407313 average: 0.0552104
ExecutionTime = 7.2 s  ClockTime = 7 s

Time = 82

smoothSolver:  Solving for Ux, Initial residual = 0.00192863, Final residual = 8.27778e-06, No Iterations 8
smoothSolver:  Solving for Uy, Initial residual = 0.00113564, Final residual = 6.20616e-06, No Iterations 8
GAMG:  Solving for p, Initial residual = 0.00128312, Final residual = 7.3753e-06, No Iterations 5
time step continuity errors : sum local = 2.91168e-06, global = -1.59251e-16, cumulative = 1.77709e-15
smoothSolver:  Solving for nuTilda, Initial residual = 0.00125322, Final residual = 5.75346e-06, No Iterations 8
bounding nuTilda, min: -0.000245713 max: 0.407316 average: 0.0548746
ExecutionTime = 7.28 s  ClockTime = 7 s

Time = 83

smoothSolver:  Solving for Ux, Initial residual = 0.0019153, Final residual = 8.21598e-06, No Iterations 8
smoothSolver:  Solving for Uy, Initial residual = 0.00113135, Final residual = 6.173e-06, No Iterations 8
GAMG:  Solving for p, Initial residual = 0.00127165, Final residual = 7.4424e-06, No Iterations 5
time step continuity errors : sum local = 2.93883e-06, global = 7.01305e-18, cumulative = 1.7841e-15
smoothSolver:  Solving for nuTilda, Initial residual = 0.00122611, Final residual = 5.62159e-06, No Iterations 8
bounding nuTilda, min: -0.000116699 max: 0.407319 average: 0.0545437
ExecutionTime = 7.37 s  ClockTime = 7 s

Time = 84

smoothSolver:  Solving for Ux, Initial residual = 0.00190241, Final residual = 8.15645e-06, No Iterations 8
smoothSolver:  Solving for Uy, Initial residual = 0.00112684, Final residual = 6.13842e-06, No Iterations 8
GAMG:  Solving for p, Initial residual = 0.00126452, Final residual = 7.51079e-06, No Iterations 5
time step continuity errors : sum local = 2.96649e-06, global = 1.74812e-16, cumulative = 1.95891e-15
smoothSolver:  Solving for nuTilda, Initial residual = 0.00119989, Final residual = 5.49409e-06, No Iterations 8
bounding nuTilda, min: -0.000277612 max: 0.407322 average: 0.0542175
ExecutionTime = 7.45 s  ClockTime = 7 s

Time = 85

smoothSolver:  Solving for Ux, Initial residual = 0.00188989, Final residual = 8.09926e-06, No Iterations 8
smoothSolver:  Solving for Uy, Initial residual = 0.00112163, Final residual = 6.10143e-06, No Iterations 8
GAMG:  Solving for p, Initial residual = 0.00125276, Final residual = 7.5264e-06, No Iterations 5
time step continuity errors : sum local = 2.9737e-06, global = -2.41029e-16, cumulative = 1.71788e-15
smoothSolver:  Solving for nuTilda, Initial residual = 0.00117446, Final residual = 5.3709e-06, No Iterations 8
bounding nuTilda, min: -0.000114166 max: 0.407325 average: 0.0538961
ExecutionTime = 7.54 s  ClockTime = 7 s

forces wings output:
    sum of forces:
        pressure : (2.15688 25.7198 5.50129e-20)
        viscous  : (0.338886 -0.0326375 -2.23905e-21)
        porous   : (0 0 0)
    sum of moments:
        pressure : (-1.28599 0.107844 5.43712)
        viscous  : (0.00163187 0.0169443 -0.0294819)
        porous   : (0 0 0)

Time = 86

smoothSolver:  Solving for Ux, Initial residual = 0.0018777, Final residual = 8.04369e-06, No Iterations 8
smoothSolver:  Solving for Uy, Initial residual = 0.0011162, Final residual = 6.0627e-06, No Iterations 8
GAMG:  Solving for p, Initial residual = 0.0012426, Final residual = 7.49463e-06, No Iterations 5
time step continuity errors : sum local = 2.96245e-06, global = -6.17355e-18, cumulative = 1.71171e-15
smoothSolver:  Solving for nuTilda, Initial residual = 0.00114979, Final residual = 5.25128e-06, No Iterations 8
bounding nuTilda, min: -0.000254724 max: 0.407329 average: 0.0535793
ExecutionTime = 7.63 s  ClockTime = 7 s

Time = 87

smoothSolver:  Solving for Ux, Initial residual = 0.00186559, Final residual = 7.98874e-06, No Iterations 8
smoothSolver:  Solving for Uy, Initial residual = 0.00111065, Final residual = 6.02354e-06, No Iterations 8
GAMG:  Solving for p, Initial residual = 0.0012349, Final residual = 7.47224e-06, No Iterations 5
time step continuity errors : sum local = 2.95475e-06, global = -1.12221e-16, cumulative = 1.59949e-15
smoothSolver:  Solving for nuTilda, Initial residual = 0.00112579, Final residual = 5.13467e-06, No Iterations 8
bounding nuTilda, min: -0.000112023 max: 0.407332 average: 0.053267
ExecutionTime = 7.72 s  ClockTime = 7 s

Time = 88

smoothSolver:  Solving for Ux, Initial residual = 0.00185352, Final residual = 7.93405e-06, No Iterations 8
smoothSolver:  Solving for Uy, Initial residual = 0.00110532, Final residual = 5.98468e-06, No Iterations 8
GAMG:  Solving for p, Initial residual = 0.00122584, Final residual = 7.48627e-06, No Iterations 5
time step continuity errors : sum local = 2.96109e-06, global = -1.1076e-16, cumulative = 1.48873e-15
smoothSolver:  Solving for nuTilda, Initial residual = 0.00110259, Final residual = 5.02057e-06, No Iterations 8
bounding nuTilda, min: -0.000247763 max: 0.407335 average: 0.0529592
ExecutionTime = 7.8 s  ClockTime = 8 s

Time = 89

smoothSolver:  Solving for Ux, Initial residual = 0.00184161, Final residual = 7.87985e-06, No Iterations 8
smoothSolver:  Solving for Uy, Initial residual = 0.00109988, Final residual = 5.94556e-06, No Iterations 8
GAMG:  Solving for p, Initial residual = 0.00121723, Final residual = 7.52275e-06, No Iterations 5
time step continuity errors : sum local = 2.97614e-06, global = 1.07234e-17, cumulative = 1.49945e-15
smoothSolver:  Solving for nuTilda, Initial residual = 0.00108014, Final residual = 4.90953e-06, No Iterations 8
bounding nuTilda, min: -0.000109537 max: 0.407339 average: 0.0526558
ExecutionTime = 7.89 s  ClockTime = 8 s

Time = 90

smoothSolver:  Solving for Ux, Initial residual = 0.00182994, Final residual = 7.82681e-06, No Iterations 8
smoothSolver:  Solving for Uy, Initial residual = 0.00109426, Final residual = 5.90507e-06, No Iterations 8
GAMG:  Solving for p, Initial residual = 0.0012109, Final residual = 7.54269e-06, No Iterations 5
time step continuity errors : sum local = 2.98501e-06, global = -5.55677e-17, cumulative = 1.44388e-15
smoothSolver:  Solving for nuTilda, Initial residual = 0.00105823, Final residual = 4.80195e-06, No Iterations 8
bounding nuTilda, min: -0.000281396 max: 0.407342 average: 0.0523567
ExecutionTime = 7.97 s  ClockTime = 8 s

forces wings output:
    sum of forces:
        pressure : (2.17862 26.251 5.51533e-20)
        viscous  : (0.331942 -0.0316363 -2.28622e-21)
        porous   : (0 0 0)
    sum of moments:
        pressure : (-1.31255 0.108931 5.50649)
        viscous  : (0.00158181 0.0165971 -0.0288489)
        porous   : (0 0 0)

Time = 91

smoothSolver:  Solving for Ux, Initial residual = 0.00181857, Final residual = 7.77497e-06, No Iterations 8
smoothSolver:  Solving for Uy, Initial residual = 0.00108804, Final residual = 5.86277e-06, No Iterations 8
GAMG:  Solving for p, Initial residual = 0.00120238, Final residual = 7.54932e-06, No Iterations 5
time step continuity errors : sum local = 2.9889e-06, global = -8.77454e-17, cumulative = 1.35614e-15
smoothSolver:  Solving for nuTilda, Initial residual = 0.00103671, Final residual = 4.69716e-06, No Iterations 8
bounding nuTilda, min: -0.000105457 max: 0.407346 average: 0.0520617
ExecutionTime = 8.06 s  ClockTime = 8 s

Time = 92

smoothSolver:  Solving for Ux, Initial residual = 0.00180739, Final residual = 7.7242e-06, No Iterations 8
smoothSolver:  Solving for Uy, Initial residual = 0.00108166, Final residual = 5.81935e-06, No Iterations 8
GAMG:  Solving for p, Initial residual = 0.00119357, Final residual = 7.54629e-06, No Iterations 5
time step continuity errors : sum local = 2.98894e-06, global = 4.90159e-17, cumulative = 1.40516e-15
smoothSolver:  Solving for nuTilda, Initial residual = 0.00101582, Final residual = 4.59527e-06, No Iterations 8
bounding nuTilda, min: -0.000256606 max: 0.40735 average: 0.0517709
ExecutionTime = 8.15 s  ClockTime = 8 s

Time = 93

smoothSolver:  Solving for Ux, Initial residual = 0.00179632, Final residual = 7.67371e-06, No Iterations 8
smoothSolver:  Solving for Uy, Initial residual = 0.0010752, Final residual = 5.7756e-06, No Iterations 8
GAMG:  Solving for p, Initial residual = 0.00118561, Final residual = 7.55425e-06, No Iterations 5
time step continuity errors : sum local = 2.99284e-06, global = 4.5185e-17, cumulative = 1.45034e-15
smoothSolver:  Solving for nuTilda, Initial residual = 0.000995603, Final residual = 4.49625e-06, No Iterations 8
bounding nuTilda, min: -0.000100551 max: 0.407354 average: 0.0514841
ExecutionTime = 8.23 s  ClockTime = 8 s

Time = 94

smoothSolver:  Solving for Ux, Initial residual = 0.00178531, Final residual = 7.62347e-06, No Iterations 8
smoothSolver:  Solving for Uy, Initial residual = 0.0010688, Final residual = 5.73167e-06, No Iterations 8
GAMG:  Solving for p, Initial residual = 0.0011794, Final residual = 7.55406e-06, No Iterations 5
time step continuity errors : sum local = 2.99357e-06, global = -8.67083e-17, cumulative = 1.36363e-15
smoothSolver:  Solving for nuTilda, Initial residual = 0.000976042, Final residual = 4.4002e-06, No Iterations 8
bounding nuTilda, min: -0.000282989 max: 0.407357 average: 0.0512013
ExecutionTime = 8.32 s  ClockTime = 8 s

Time = 95

smoothSolver:  Solving for Ux, Initial residual = 0.00177434, Final residual = 7.57369e-06, No Iterations 8
smoothSolver:  Solving for Uy, Initial residual = 0.00106212, Final residual = 5.68707e-06, No Iterations 8
GAMG:  Solving for p, Initial residual = 0.00117192, Final residual = 7.55055e-06, No Iterations 5
time step continuity errors : sum local = 2.99319e-06, global = 1.09521e-16, cumulative = 1.47315e-15
smoothSolver:  Solving for nuTilda, Initial residual = 0.000957055, Final residual = 4.30681e-06, No Iterations 8
bounding nuTilda, min: -9.54406e-05 max: 0.407361 average: 0.0509223
ExecutionTime = 8.41 s  ClockTime = 8 s

forces wings output:
    sum of forces:
        pressure : (2.19802 26.7907 5.5055e-20)
        viscous  : (0.325792 -0.030752 -2.3201e-21)
        porous   : (0 0 0)
    sum of moments:
        pressure : (-1.33954 0.109901 5.57192)
        viscous  : (0.0015376 0.0162896 -0.0282913)
        porous   : (0 0 0)

Time = 96

smoothSolver:  Solving for Ux, Initial residual = 0.00176352, Final residual = 7.52462e-06, No Iterations 8
smoothSolver:  Solving for Uy, Initial residual = 0.00105534, Final residual = 5.64141e-06, No Iterations 8
GAMG:  Solving for p, Initial residual = 0.00116546, Final residual = 7.53798e-06, No Iterations 5
time step continuity errors : sum local = 2.98929e-06, global = -2.44424e-16, cumulative = 1.22873e-15
smoothSolver:  Solving for nuTilda, Initial residual = 0.000938431, Final residual = 4.21493e-06, No Iterations 8
bounding nuTilda, min: -0.000255826 max: 0.407365 average: 0.0506472
ExecutionTime = 8.5 s  ClockTime = 8 s

Time = 97

smoothSolver:  Solving for Ux, Initial residual = 0.00175283, Final residual = 7.47617e-06, No Iterations 8
smoothSolver:  Solving for Uy, Initial residual = 0.00104827, Final residual = 5.59467e-06, No Iterations 8
GAMG:  Solving for p, Initial residual = 0.00115822, Final residual = 7.5383e-06, No Iterations 5
time step continuity errors : sum local = 2.99025e-06, global = -7.23471e-17, cumulative = 1.15638e-15
smoothSolver:  Solving for nuTilda, Initial residual = 0.000920232, Final residual = 4.12543e-06, No Iterations 8
bounding nuTilda, min: -9.00561e-05 max: 0.407369 average: 0.0503759
ExecutionTime = 8.58 s  ClockTime = 8 s

Time = 98

smoothSolver:  Solving for Ux, Initial residual = 0.00174225, Final residual = 7.42828e-06, No Iterations 8
smoothSolver:  Solving for Uy, Initial residual = 0.00104106, Final residual = 5.54716e-06, No Iterations 8
GAMG:  Solving for p, Initial residual = 0.00115271, Final residual = 7.53155e-06, No Iterations 5
time step continuity errors : sum local = 2.98848e-06, global = -9.70365e-17, cumulative = 1.05935e-15
smoothSolver:  Solving for nuTilda, Initial residual = 0.000902494, Final residual = 4.03819e-06, No Iterations 8
bounding nuTilda, min: -0.000280878 max: 0.407373 average: 0.0501083
ExecutionTime = 8.66 s  ClockTime = 8 s

Time = 99

smoothSolver:  Solving for Ux, Initial residual = 0.0017317, Final residual = 7.38066e-06, No Iterations 8
smoothSolver:  Solving for Uy, Initial residual = 0.00103356, Final residual = 5.49909e-06, No Iterations 8
GAMG:  Solving for p, Initial residual = 0.00114524, Final residual = 7.52422e-06, No Iterations 5
time step continuity errors : sum local = 2.98652e-06, global = -1.78505e-16, cumulative = 8.8084e-16
smoothSolver:  Solving for nuTilda, Initial residual = 0.000885226, Final residual = 3.95267e-06, No Iterations 8
bounding nuTilda, min: -8.43342e-05 max: 0.407377 average: 0.0498443
ExecutionTime = 8.75 s  ClockTime = 9 s

Time = 100

smoothSolver:  Solving for Ux, Initial residual = 0.00172114, Final residual = 7.33338e-06, No Iterations 8
smoothSolver:  Solving for Uy, Initial residual = 0.00102605, Final residual = 5.45042e-06, No Iterations 8
GAMG:  Solving for p, Initial residual = 0.00113731, Final residual = 7.49913e-06, No Iterations 5
time step continuity errors : sum local = 2.97764e-06, global = 8.13294e-17, cumulative = 9.6217e-16
smoothSolver:  Solving for nuTilda, Initial residual = 0.000868308, Final residual = 3.8692e-06, No Iterations 8
bounding nuTilda, min: -0.000252589 max: 0.407382 average: 0.0495838
ExecutionTime = 8.83 s  ClockTime = 9 s

forces wings output:
    sum of forces:
        pressure : (2.21416 27.3322 5.46191e-20)
        viscous  : (0.320038 -0.0299573 -2.34583e-21)
        porous   : (0 0 0)
    sum of moments:
        pressure : (-1.36661 0.110708 5.63131)
        viscous  : (0.00149786 0.0160019 -0.0277726)
        porous   : (0 0 0)

Time = 101

smoothSolver:  Solving for Ux, Initial residual = 0.0017106, Final residual = 7.28614e-06, No Iterations 8
smoothSolver:  Solving for Uy, Initial residual = 0.00101832, Final residual = 5.40116e-06, No Iterations 8
GAMG:  Solving for p, Initial residual = 0.00112856, Final residual = 7.47875e-06, No Iterations 5
time step continuity errors : sum local = 2.97054e-06, global = 1.10626e-16, cumulative = 1.0728e-15
smoothSolver:  Solving for nuTilda, Initial residual = 0.000851539, Final residual = 3.7881e-06, No Iterations 8
bounding nuTilda, min: -7.8246e-05 max: 0.407386 average: 0.049327
ExecutionTime = 8.93 s  ClockTime = 9 s

Time = 102

smoothSolver:  Solving for Ux, Initial residual = 0.00170007, Final residual = 7.23914e-06, No Iterations 8
smoothSolver:  Solving for Uy, Initial residual = 0.00101047, Final residual = 5.35118e-06, No Iterations 8
GAMG:  Solving for p, Initial residual = 0.00112277, Final residual = 7.45331e-06, No Iterations 5
time step continuity errors : sum local = 2.96149e-06, global = 8.48724e-18, cumulative = 1.08128e-15
smoothSolver:  Solving for nuTilda, Initial residual = 0.000835225, Final residual = 3.70901e-06, No Iterations 8
bounding nuTilda, min: -0.000278424 max: 0.40739 average: 0.0490735
ExecutionTime = 9.01 s  ClockTime = 9 s

Time = 103

smoothSolver:  Solving for Ux, Initial residual = 0.00168955, Final residual = 7.19227e-06, No Iterations 8
smoothSolver:  Solving for Uy, Initial residual = 0.00100227, Final residual = 5.30038e-06, No Iterations 8
GAMG:  Solving for p, Initial residual = 0.00111301, Final residual = 7.43492e-06, No Iterations 5
time step continuity errors : sum local = 2.95525e-06, global = 1.91332e-16, cumulative = 1.27261e-15
smoothSolver:  Solving for nuTilda, Initial residual = 0.000819225, Final residual = 3.632e-06, No Iterations 8
bounding nuTilda, min: -7.17784e-05 max: 0.407395 average: 0.0488236
ExecutionTime = 9.09 s  ClockTime = 9 s

Time = 104

smoothSolver:  Solving for Ux, Initial residual = 0.00167899, Final residual = 7.14542e-06, No Iterations 8
smoothSolver:  Solving for Uy, Initial residual = 0.000993982, Final residual = 5.24893e-06, No Iterations 8
GAMG:  Solving for p, Initial residual = 0.00110267, Final residual = 7.40605e-06, No Iterations 5
time step continuity errors : sum local = 2.94491e-06, global = -1.25316e-16, cumulative = 1.1473e-15
smoothSolver:  Solving for nuTilda, Initial residual = 0.000803537, Final residual = 3.55688e-06, No Iterations 8
bounding nuTilda, min: -0.000251665 max: 0.407399 average: 0.0485769
ExecutionTime = 9.18 s  ClockTime = 9 s

Time = 105

smoothSolver:  Solving for Ux, Initial residual = 0.00166849, Final residual = 7.09852e-06, No Iterations 8
smoothSolver:  Solving for Uy, Initial residual = 0.000985478, Final residual = 5.19694e-06, No Iterations 8
GAMG:  Solving for p, Initial residual = 0.00109283, Final residual = 7.37815e-06, No Iterations 5
time step continuity errors : sum local = 2.93498e-06, global = -7.34743e-17, cumulative = 1.07382e-15
smoothSolver:  Solving for nuTilda, Initial residual = 0.000788199, Final residual = 3.48354e-06, No Iterations 8
bounding nuTilda, min: -6.49552e-05 max: 0.407403 average: 0.0483336
ExecutionTime = 9.26 s  ClockTime = 9 s

forces wings output:
    sum of forces:
        pressure : (2.22667 27.8651 5.38468e-20)
        viscous  : (0.314456 -0.0292282 -2.36578e-21)
        porous   : (0 0 0)
    sum of moments:
        pressure : (-1.39325 0.111334 5.68341)
        viscous  : (0.00146141 0.0157228 -0.0272731)
        porous   : (0 0 0)

Time = 106

smoothSolver:  Solving for Ux, Initial residual = 0.00165794, Final residual = 7.0514e-06, No Iterations 8
smoothSolver:  Solving for Uy, Initial residual = 0.000976836, Final residual = 5.14431e-06, No Iterations 8
GAMG:  Solving for p, Initial residual = 0.00108543, Final residual = 7.34071e-06, No Iterations 5
time step continuity errors : sum local = 2.9213e-06, global = 1.41725e-16, cumulative = 1.21555e-15
smoothSolver:  Solving for nuTilda, Initial residual = 0.000773108, Final residual = 3.41136e-06, No Iterations 8
bounding nuTilda, min: -0.000277839 max: 0.407408 average: 0.0480935
ExecutionTime = 9.35 s  ClockTime = 9 s

Time = 107

smoothSolver:  Solving for Ux, Initial residual = 0.00164735, Final residual = 7.00394e-06, No Iterations 8
smoothSolver:  Solving for Uy, Initial residual = 0.000967887, Final residual = 5.09104e-06, No Iterations 8
GAMG:  Solving for p, Initial residual = 0.00107397, Final residual = 7.30239e-06, No Iterations 5
time step continuity errors : sum local = 2.90732e-06, global = 1.36927e-16, cumulative = 1.35248e-15
smoothSolver:  Solving for nuTilda, Initial residual = 0.000758369, Final residual = 3.34122e-06, No Iterations 8
bounding nuTilda, min: -5.77291e-05 max: 0.407412 average: 0.0478567
ExecutionTime = 9.44 s  ClockTime = 9 s

Time = 108

smoothSolver:  Solving for Ux, Initial residual = 0.00163664, Final residual = 6.95614e-06, No Iterations 8
smoothSolver:  Solving for Uy, Initial residual = 0.000958883, Final residual = 5.03715e-06, No Iterations 8
GAMG:  Solving for p, Initial residual = 0.00106169, Final residual = 7.25727e-06, No Iterations 5
time step continuity errors : sum local = 2.89062e-06, global = 1.17309e-16, cumulative = 1.46979e-15
smoothSolver:  Solving for nuTilda, Initial residual = 0.000744039, Final residual = 3.27324e-06, No Iterations 8
bounding nuTilda, min: -0.000252588 max: 0.407416 average: 0.047623
ExecutionTime = 9.53 s  ClockTime = 9 s

Time = 109

smoothSolver:  Solving for Ux, Initial residual = 0.00162588, Final residual = 6.90771e-06, No Iterations 8
smoothSolver:  Solving for Uy, Initial residual = 0.000949655, Final residual = 4.98295e-06, No Iterations 8
GAMG:  Solving for p, Initial residual = 0.00105058, Final residual = 7.21124e-06, No Iterations 5
time step continuity errors : sum local = 2.8737e-06, global = 6.94756e-17, cumulative = 1.53926e-15
smoothSolver:  Solving for nuTilda, Initial residual = 0.000730115, Final residual = 3.20694e-06, No Iterations 8
bounding nuTilda, min: -5.00452e-05 max: 0.407421 average: 0.0473925
ExecutionTime = 9.61 s  ClockTime = 9 s

Time = 110

smoothSolver:  Solving for Ux, Initial residual = 0.00161509, Final residual = 6.85884e-06, No Iterations 8
smoothSolver:  Solving for Uy, Initial residual = 0.000940326, Final residual = 4.92823e-06, No Iterations 8
GAMG:  Solving for p, Initial residual = 0.00104187, Final residual = 7.16105e-06, No Iterations 5
time step continuity errors : sum local = 2.85508e-06, global = -2.2198e-16, cumulative = 1.31728e-15
smoothSolver:  Solving for nuTilda, Initial residual = 0.000716536, Final residual = 3.14218e-06, No Iterations 8
bounding nuTilda, min: -0.00027879 max: 0.407425 average: 0.047165
ExecutionTime = 9.69 s  ClockTime = 9 s

forces wings output:
    sum of forces:
        pressure : (2.23518 28.3809 5.27298e-20)
        viscous  : (0.309041 -0.0285787 -2.37706e-21)
        porous   : (0 0 0)
    sum of moments:
        pressure : (-1.41905 0.111759 5.72706)
        viscous  : (0.00142894 0.0154521 -0.0267911)
        porous   : (0 0 0)

Time = 111

smoothSolver:  Solving for Ux, Initial residual = 0.00160429, Final residual = 6.8093e-06, No Iterations 8
smoothSolver:  Solving for Uy, Initial residual = 0.000930701, Final residual = 4.87293e-06, No Iterations 8
GAMG:  Solving for p, Initial residual = 0.00102905, Final residual = 7.1048e-06, No Iterations 5
time step continuity errors : sum local = 2.83417e-06, global = -4.61491e-17, cumulative = 1.27113e-15
smoothSolver:  Solving for nuTilda, Initial residual = 0.000703374, Final residual = 3.07894e-06, No Iterations 8
bounding nuTilda, min: -4.184e-05 max: 0.40743 average: 0.0469406
ExecutionTime = 9.78 s  ClockTime = 10 s

Time = 112

smoothSolver:  Solving for Ux, Initial residual = 0.00159341, Final residual = 6.75921e-06, No Iterations 8
smoothSolver:  Solving for Uy, Initial residual = 0.000921026, Final residual = 4.81707e-06, No Iterations 8
GAMG:  Solving for p, Initial residual = 0.00101547, Final residual = 7.044e-06, No Iterations 5
time step continuity errors : sum local = 2.81131e-06, global = -1.77931e-16, cumulative = 1.0932e-15
smoothSolver:  Solving for nuTilda, Initial residual = 0.000690524, Final residual = 3.01733e-06, No Iterations 8
bounding nuTilda, min: -0.000255092 max: 0.407434 average: 0.0467191
ExecutionTime = 9.87 s  ClockTime = 10 s

Time = 113

smoothSolver:  Solving for Ux, Initial residual = 0.00158245, Final residual = 6.7083e-06, No Iterations 8
smoothSolver:  Solving for Uy, Initial residual = 0.000911171, Final residual = 4.76093e-06, No Iterations 8
GAMG:  Solving for p, Initial residual = 0.0010032, Final residual = 6.97039e-06, No Iterations 5
time step continuity errors : sum local = 2.78355e-06, global = 2.457e-16, cumulative = 1.3389e-15
[...]

forces wings output:
    sum of forces:
        pressure : (1.40951 29.8315 -8.79571e-21)
        viscous  : (0.154065 -0.0166463 -4.18759e-22)
        porous   : (0 0 0)
    sum of moments:
        pressure : (-1.49158 0.0704753 4.25093)
        viscous  : (0.000832317 0.00770324 -0.0133767)
        porous   : (0 0 0)

Time = 4971

smoothSolver:  Solving for Ux, Initial residual = 5.69368e-08, Final residual = 8.58036e-09, No Iterations 2
smoothSolver:  Solving for Uy, Initial residual = 1.18202e-07, Final residual = 3.15566e-09, No Iterations 4
GAMG:  Solving for p, Initial residual = 7.88135e-07, Final residual = 7.88135e-07, No Iterations 0
time step continuity errors : sum local = 3.09198e-07, global = -1.11666e-16, cumulative = 5.49284e-14
smoothSolver:  Solving for nuTilda, Initial residual = 9.16012e-09, Final residual = 9.16012e-09, No Iterations 0
ExecutionTime = 335.4 s  ClockTime = 335 s

Time = 4972

smoothSolver:  Solving for Ux, Initial residual = 5.38333e-08, Final residual = 8.27071e-09, No Iterations 2
smoothSolver:  Solving for Uy, Initial residual = 1.13226e-07, Final residual = 3.05014e-09, No Iterations 4
GAMG:  Solving for p, Initial residual = 1.10838e-06, Final residual = 7.10085e-07, No Iterations 1
time step continuity errors : sum local = 2.78584e-07, global = 1.68241e-17, cumulative = 5.49452e-14
smoothSolver:  Solving for nuTilda, Initial residual = 9.14127e-09, Final residual = 9.14127e-09, No Iterations 0
ExecutionTime = 335.47 s  ClockTime = 335 s

Time = 4973

smoothSolver:  Solving for Ux, Initial residual = 5.5361e-08, Final residual = 8.40313e-09, No Iterations 2
smoothSolver:  Solving for Uy, Initial residual = 1.11514e-07, Final residual = 3.00706e-09, No Iterations 4
GAMG:  Solving for p, Initial residual = 8.0617e-07, Final residual = 8.0617e-07, No Iterations 0
time step continuity errors : sum local = 3.16273e-07, global = 1.31603e-16, cumulative = 5.50768e-14
smoothSolver:  Solving for nuTilda, Initial residual = 9.19215e-09, Final residual = 9.19215e-09, No Iterations 0
ExecutionTime = 335.53 s  ClockTime = 335 s

Time = 4974

smoothSolver:  Solving for Ux, Initial residual = 5.2373e-08, Final residual = 8.0769e-09, No Iterations 2
smoothSolver:  Solving for Uy, Initial residual = 1.06712e-07, Final residual = 2.91004e-09, No Iterations 4
GAMG:  Solving for p, Initial residual = 1.12848e-06, Final residual = 7.39825e-07, No Iterations 1
time step continuity errors : sum local = 2.9025e-07, global = 8.50497e-18, cumulative = 5.50853e-14
smoothSolver:  Solving for nuTilda, Initial residual = 9.16342e-09, Final residual = 9.16342e-09, No Iterations 0
ExecutionTime = 335.59 s  ClockTime = 335 s

Time = 4975

smoothSolver:  Solving for Ux, Initial residual = 5.38132e-08, Final residual = 8.1925e-09, No Iterations 2
smoothSolver:  Solving for Uy, Initial residual = 1.11685e-07, Final residual = 3.0365e-09, No Iterations 4
GAMG:  Solving for p, Initial residual = 7.79579e-07, Final residual = 7.79579e-07, No Iterations 0
time step continuity errors : sum local = 3.05843e-07, global = 1.09949e-16, cumulative = 5.51953e-14
smoothSolver:  Solving for nuTilda, Initial residual = 9.2036e-09, Final residual = 9.2036e-09, No Iterations 0
ExecutionTime = 335.65 s  ClockTime = 336 s

forces wings output:
    sum of forces:
        pressure : (1.40949 29.8315 -8.79582e-21)
        viscous  : (0.154065 -0.0166463 -4.18547e-22)
        porous   : (0 0 0)
    sum of moments:
        pressure : (-1.49158 0.0704747 4.25091)
        viscous  : (0.000832316 0.00770325 -0.0133767)
        porous   : (0 0 0)

Time = 4976

smoothSolver:  Solving for Ux, Initial residual = 5.09251e-08, Final residual = 7.90862e-09, No Iterations 2
smoothSolver:  Solving for Uy, Initial residual = 1.07056e-07, Final residual = 2.94999e-09, No Iterations 4
GAMG:  Solving for p, Initial residual = 1.08358e-06, Final residual = 7.05146e-07, No Iterations 1
time step continuity errors : sum local = 2.76639e-07, global = 3.2703e-17, cumulative = 5.5228e-14
smoothSolver:  Solving for nuTilda, Initial residual = 9.16128e-09, Final residual = 9.16128e-09, No Iterations 0
ExecutionTime = 335.71 s  ClockTime = 336 s

Time = 4977

smoothSolver:  Solving for Ux, Initial residual = 5.34105e-08, Final residual = 8.05304e-09, No Iterations 2
smoothSolver:  Solving for Uy, Initial residual = 1.11129e-07, Final residual = 2.96712e-09, No Iterations 4
GAMG:  Solving for p, Initial residual = 7.75167e-07, Final residual = 7.75167e-07, No Iterations 0
time step continuity errors : sum local = 3.04111e-07, global = 1.40301e-16, cumulative = 5.53683e-14
smoothSolver:  Solving for nuTilda, Initial residual = 9.18667e-09, Final residual = 9.18667e-09, No Iterations 0
ExecutionTime = 335.77 s  ClockTime = 336 s

Time = 4978

smoothSolver:  Solving for Ux, Initial residual = 5.04824e-08, Final residual = 7.74937e-09, No Iterations 2
smoothSolver:  Solving for Uy, Initial residual = 1.06443e-07, Final residual = 2.87467e-09, No Iterations 4
GAMG:  Solving for p, Initial residual = 1.08471e-06, Final residual = 7.17173e-07, No Iterations 1
time step continuity errors : sum local = 2.81363e-07, global = -4.9229e-17, cumulative = 5.5319e-14
smoothSolver:  Solving for nuTilda, Initial residual = 9.14277e-09, Final residual = 9.14277e-09, No Iterations 0
ExecutionTime = 335.83 s  ClockTime = 336 s

Time = 4979

smoothSolver:  Solving for Ux, Initial residual = 5.0947e-08, Final residual = 7.64397e-09, No Iterations 2
smoothSolver:  Solving for Uy, Initial residual = 1.06649e-07, Final residual = 2.81633e-09, No Iterations 4
GAMG:  Solving for p, Initial residual = 7.66056e-07, Final residual = 7.66056e-07, No Iterations 0
time step continuity errors : sum local = 3.00535e-07, global = 2.22748e-16, cumulative = 5.55418e-14
smoothSolver:  Solving for nuTilda, Initial residual = 9.16335e-09, Final residual = 9.16335e-09, No Iterations 0
ExecutionTime = 335.89 s  ClockTime = 336 s

Time = 4980

smoothSolver:  Solving for Ux, Initial residual = 4.81422e-08, Final residual = 7.36296e-09, No Iterations 2
smoothSolver:  Solving for Uy, Initial residual = 1.02164e-07, Final residual = 2.73021e-09, No Iterations 4
GAMG:  Solving for p, Initial residual = 1.05671e-06, Final residual = 7.04153e-07, No Iterations 1
time step continuity errors : sum local = 2.76255e-07, global = 2.27286e-16, cumulative = 5.57691e-14
smoothSolver:  Solving for nuTilda, Initial residual = 9.1295e-09, Final residual = 9.1295e-09, No Iterations 0
ExecutionTime = 335.96 s  ClockTime = 336 s

forces wings output:
    sum of forces:
        pressure : (1.40951 29.8316 -8.79755e-21)
        viscous  : (0.154065 -0.0166463 -4.18645e-22)
        porous   : (0 0 0)
    sum of moments:
        pressure : (-1.49158 0.0704754 4.25094)
        viscous  : (0.000832317 0.00770325 -0.0133767)
        porous   : (0 0 0)

Time = 4981

smoothSolver:  Solving for Ux, Initial residual = 5.08303e-08, Final residual = 7.6637e-09, No Iterations 2
smoothSolver:  Solving for Uy, Initial residual = 1.06993e-07, Final residual = 2.86918e-09, No Iterations 4
GAMG:  Solving for p, Initial residual = 7.49859e-07, Final residual = 7.49859e-07, No Iterations 0
time step continuity errors : sum local = 2.94183e-07, global = -3.90519e-17, cumulative = 5.573e-14
smoothSolver:  Solving for nuTilda, Initial residual = 9.15606e-09, Final residual = 9.15606e-09, No Iterations 0
ExecutionTime = 336.02 s  ClockTime = 336 s

Time = 4982

smoothSolver:  Solving for Ux, Initial residual = 4.80401e-08, Final residual = 7.38342e-09, No Iterations 2
smoothSolver:  Solving for Uy, Initial residual = 1.02769e-07, Final residual = 2.79447e-09, No Iterations 4
GAMG:  Solving for p, Initial residual = 1.04181e-06, Final residual = 6.99264e-07, No Iterations 1
time step continuity errors : sum local = 2.74331e-07, global = -2.50933e-16, cumulative = 5.54791e-14
smoothSolver:  Solving for nuTilda, Initial residual = 9.13316e-09, Final residual = 9.13316e-09, No Iterations 0
ExecutionTime = 336.09 s  ClockTime = 336 s

Time = 4983

smoothSolver:  Solving for Ux, Initial residual = 5.0201e-08, Final residual = 7.53786e-09, No Iterations 2
smoothSolver:  Solving for Uy, Initial residual = 1.03523e-07, Final residual = 2.81944e-09, No Iterations 4
GAMG:  Solving for p, Initial residual = 7.43369e-07, Final residual = 7.43369e-07, No Iterations 0
time step continuity errors : sum local = 2.91636e-07, global = -1.2964e-16, cumulative = 5.53495e-14
smoothSolver:  Solving for nuTilda, Initial residual = 9.17846e-09, Final residual = 9.17846e-09, No Iterations 0
ExecutionTime = 336.14 s  ClockTime = 336 s

Time = 4984

smoothSolver:  Solving for Ux, Initial residual = 4.74926e-08, Final residual = 7.273e-09, No Iterations 2
smoothSolver:  Solving for Uy, Initial residual = 9.93117e-08, Final residual = 2.73915e-09, No Iterations 4
GAMG:  Solving for p, Initial residual = 1.02585e-06, Final residual = 6.95805e-07, No Iterations 1
time step continuity errors : sum local = 2.72981e-07, global = -5.55914e-18, cumulative = 5.53439e-14
smoothSolver:  Solving for nuTilda, Initial residual = 9.15138e-09, Final residual = 9.15138e-09, No Iterations 0
ExecutionTime = 336.21 s  ClockTime = 336 s

Time = 4985

smoothSolver:  Solving for Ux, Initial residual = 4.93083e-08, Final residual = 7.37636e-09, No Iterations 2
smoothSolver:  Solving for Uy, Initial residual = 1.02436e-07, Final residual = 2.64158e-09, No Iterations 4
GAMG:  Solving for p, Initial residual = 7.26187e-07, Final residual = 7.26187e-07, No Iterations 0
time step continuity errors : sum local = 2.84894e-07, global = 2.92949e-16, cumulative = 5.56368e-14
smoothSolver:  Solving for nuTilda, Initial residual = 9.19688e-09, Final residual = 9.19688e-09, No Iterations 0
ExecutionTime = 336.26 s  ClockTime = 336 s

forces wings output:
    sum of forces:
        pressure : (1.4095 29.8315 -8.79497e-21)
        viscous  : (0.154065 -0.0166463 -4.18697e-22)
        porous   : (0 0 0)
    sum of moments:
        pressure : (-1.49158 0.0704749 4.25092)
        viscous  : (0.000832316 0.00770325 -0.0133767)
        porous   : (0 0 0)

Time = 4986

smoothSolver:  Solving for Ux, Initial residual = 4.66624e-08, Final residual = 7.09762e-09, No Iterations 2
smoothSolver:  Solving for Uy, Initial residual = 9.82183e-08, Final residual = 2.56902e-09, No Iterations 4
GAMG:  Solving for p, Initial residual = 1.00212e-06, Final residual = 6.82954e-07, No Iterations 1
time step continuity errors : sum local = 2.67939e-07, global = -2.42699e-16, cumulative = 5.53941e-14
smoothSolver:  Solving for nuTilda, Initial residual = 9.16539e-09, Final residual = 9.16539e-09, No Iterations 0
ExecutionTime = 336.33 s  ClockTime = 336 s

Time = 4987

smoothSolver:  Solving for Ux, Initial residual = 5.02179e-08, Final residual = 7.66172e-09, No Iterations 2
smoothSolver:  Solving for Uy, Initial residual = 1.05415e-07, Final residual = 2.91856e-09, No Iterations 4
GAMG:  Solving for p, Initial residual = 7.1774e-07, Final residual = 7.1774e-07, No Iterations 0
time step continuity errors : sum local = 2.81582e-07, global = 9.25554e-17, cumulative = 5.54867e-14
smoothSolver:  Solving for nuTilda, Initial residual = 9.19927e-09, Final residual = 9.19927e-09, No Iterations 0
ExecutionTime = 336.39 s  ClockTime = 336 s

Time = 4988

smoothSolver:  Solving for Ux, Initial residual = 4.75795e-08, Final residual = 7.40565e-09, No Iterations 2
smoothSolver:  Solving for Uy, Initial residual = 1.01375e-07, Final residual = 2.83916e-09, No Iterations 4
GAMG:  Solving for p, Initial residual = 9.96537e-07, Final residual = 9.96537e-07, No Iterations 0
time step continuity errors : sum local = 3.90959e-07, global = 2.5909e-16, cumulative = 5.57458e-14
smoothSolver:  Solving for nuTilda, Initial residual = 9.2168e-09, Final residual = 9.2168e-09, No Iterations 0
ExecutionTime = 336.45 s  ClockTime = 336 s

Time = 4989

smoothSolver:  Solving for Ux, Initial residual = 4.62649e-08, Final residual = 7.23396e-09, No Iterations 2
smoothSolver:  Solving for Uy, Initial residual = 9.74199e-08, Final residual = 2.76204e-09, No Iterations 4
GAMG:  Solving for p, Initial residual = 1.37584e-06, Final residual = 9.46841e-07, No Iterations 1
time step continuity errors : sum local = 3.71463e-07, global = 1.58343e-16, cumulative = 5.59041e-14
smoothSolver:  Solving for nuTilda, Initial residual = 9.16829e-09, Final residual = 9.16829e-09, No Iterations 0
ExecutionTime = 336.51 s  ClockTime = 336 s

Time = 4990

smoothSolver:  Solving for Ux, Initial residual = 5.74972e-08, Final residual = 8.56911e-09, No Iterations 2
smoothSolver:  Solving for Uy, Initial residual = 1.20186e-07, Final residual = 3.10552e-09, No Iterations 4
GAMG:  Solving for p, Initial residual = 7.54787e-07, Final residual = 7.54787e-07, No Iterations 0
time step continuity errors : sum local = 2.96114e-07, global = -4.89761e-18, cumulative = 5.58992e-14
smoothSolver:  Solving for nuTilda, Initial residual = 9.18402e-09, Final residual = 9.18402e-09, No Iterations 0
ExecutionTime = 336.57 s  ClockTime = 336 s

forces wings output:
    sum of forces:
        pressure : (1.4095 29.8316 -8.79869e-21)
        viscous  : (0.154065 -0.0166463 -4.18507e-22)
        porous   : (0 0 0)
    sum of moments:
        pressure : (-1.49158 0.0704751 4.25093)
        viscous  : (0.000832317 0.00770325 -0.0133767)
        porous   : (0 0 0)

Time = 4991

smoothSolver:  Solving for Ux, Initial residual = 5.45649e-08, Final residual = 8.25506e-09, No Iterations 2
smoothSolver:  Solving for Uy, Initial residual = 1.1525e-07, Final residual = 3.00572e-09, No Iterations 4
GAMG:  Solving for p, Initial residual = 9.6811e-07, Final residual = 9.6811e-07, No Iterations 0
time step continuity errors : sum local = 3.79803e-07, global = 9.97252e-17, cumulative = 5.5999e-14
smoothSolver:  Solving for nuTilda, Initial residual = 9.19435e-09, Final residual = 9.19435e-09, No Iterations 0
ExecutionTime = 336.63 s  ClockTime = 337 s

Time = 4992

smoothSolver:  Solving for Ux, Initial residual = 5.25292e-08, Final residual = 8.0261e-09, No Iterations 2
smoothSolver:  Solving for Uy, Initial residual = 1.10103e-07, Final residual = 2.90409e-09, No Iterations 4
GAMG:  Solving for p, Initial residual = 1.40337e-06, Final residual = 8.61882e-07, No Iterations 1
time step continuity errors : sum local = 3.38138e-07, global = -7.23871e-17, cumulative = 5.59266e-14
smoothSolver:  Solving for nuTilda, Initial residual = 9.1558e-09, Final residual = 9.1558e-09, No Iterations 0
ExecutionTime = 336.69 s  ClockTime = 337 s

Time = 4993

smoothSolver:  Solving for Ux, Initial residual = 5.94799e-08, Final residual = 9.26607e-09, No Iterations 2
smoothSolver:  Solving for Uy, Initial residual = 1.20911e-07, Final residual = 3.34881e-09, No Iterations 4
GAMG:  Solving for p, Initial residual = 8.16672e-07, Final residual = 8.16672e-07, No Iterations 0
time step continuity errors : sum local = 3.20395e-07, global = 5.61601e-17, cumulative = 5.59827e-14
smoothSolver:  Solving for nuTilda, Initial residual = 9.1888e-09, Final residual = 9.1888e-09, No Iterations 0
ExecutionTime = 336.75 s  ClockTime = 337 s

Time = 4994

smoothSolver:  Solving for Ux, Initial residual = 5.63411e-08, Final residual = 8.89953e-09, No Iterations 2
smoothSolver:  Solving for Uy, Initial residual = 1.15637e-07, Final residual = 3.23605e-09, No Iterations 4
GAMG:  Solving for p, Initial residual = 1.0927e-06, Final residual = 7.04379e-07, No Iterations 1
time step continuity errors : sum local = 2.76339e-07, global = -1.71065e-16, cumulative = 5.58117e-14
smoothSolver:  Solving for nuTilda, Initial residual = 9.14409e-09, Final residual = 9.14409e-09, No Iterations 0
ExecutionTime = 336.81 s  ClockTime = 337 s

Time = 4995

smoothSolver:  Solving for Ux, Initial residual = 6.00878e-08, Final residual = 9.11379e-09, No Iterations 2
smoothSolver:  Solving for Uy, Initial residual = 1.23174e-07, Final residual = 3.31638e-09, No Iterations 4
GAMG:  Solving for p, Initial residual = 8.17764e-07, Final residual = 8.17764e-07, No Iterations 0
time step continuity errors : sum local = 3.20822e-07, global = -5.0588e-17, cumulative = 5.57611e-14
smoothSolver:  Solving for nuTilda, Initial residual = 9.17475e-09, Final residual = 9.17475e-09, No Iterations 0
ExecutionTime = 336.87 s  ClockTime = 337 s

forces wings output:
    sum of forces:
        pressure : (1.40951 29.8315 -8.79635e-21)
        viscous  : (0.154065 -0.0166463 -4.18836e-22)
        porous   : (0 0 0)
    sum of moments:
        pressure : (-1.49158 0.0704754 4.25093)
        viscous  : (0.000832317 0.00770324 -0.0133767)
        porous   : (0 0 0)

Time = 4996

smoothSolver:  Solving for Ux, Initial residual = 5.70835e-08, Final residual = 8.80211e-09, No Iterations 2
smoothSolver:  Solving for Uy, Initial residual = 1.18104e-07, Final residual = 3.21205e-09, No Iterations 4
GAMG:  Solving for p, Initial residual = 1.18817e-06, Final residual = 7.63809e-07, No Iterations 1
time step continuity errors : sum local = 2.99661e-07, global = 1.49726e-16, cumulative = 5.59108e-14
smoothSolver:  Solving for nuTilda, Initial residual = 9.14903e-09, Final residual = 9.14903e-09, No Iterations 0
ExecutionTime = 336.94 s  ClockTime = 337 s

Time = 4997

smoothSolver:  Solving for Ux, Initial residual = 5.56641e-08, Final residual = 8.54037e-09, No Iterations 2
smoothSolver:  Solving for Uy, Initial residual = 1.15238e-07, Final residual = 3.12095e-09, No Iterations 4
GAMG:  Solving for p, Initial residual = 8.37523e-07, Final residual = 8.37523e-07, No Iterations 0
time step continuity errors : sum local = 3.28573e-07, global = 1.73561e-18, cumulative = 5.59125e-14
smoothSolver:  Solving for nuTilda, Initial residual = 9.19018e-09, Final residual = 9.19018e-09, No Iterations 0
ExecutionTime = 337.01 s  ClockTime = 337 s

Time = 4998

smoothSolver:  Solving for Ux, Initial residual = 5.25597e-08, Final residual = 8.19034e-09, No Iterations 2
smoothSolver:  Solving for Uy, Initial residual = 1.1011e-07, Final residual = 3.01757e-09, No Iterations 4
GAMG:  Solving for p, Initial residual = 1.16066e-06, Final residual = 7.46537e-07, No Iterations 1
time step continuity errors : sum local = 2.92885e-07, global = -1.18326e-16, cumulative = 5.57942e-14
smoothSolver:  Solving for nuTilda, Initial residual = 9.16724e-09, Final residual = 9.16724e-09, No Iterations 0
ExecutionTime = 337.07 s  ClockTime = 337 s

Time = 4999

smoothSolver:  Solving for Ux, Initial residual = 5.6347e-08, Final residual = 8.53653e-09, No Iterations 2
smoothSolver:  Solving for Uy, Initial residual = 1.16668e-07, Final residual = 3.15629e-09, No Iterations 4
GAMG:  Solving for p, Initial residual = 7.96574e-07, Final residual = 7.96574e-07, No Iterations 0
time step continuity errors : sum local = 3.1251e-07, global = -9.17071e-17, cumulative = 5.57025e-14
smoothSolver:  Solving for nuTilda, Initial residual = 9.21019e-09, Final residual = 9.21019e-09, No Iterations 0
ExecutionTime = 337.12 s  ClockTime = 337 s

Time = 5000

smoothSolver:  Solving for Ux, Initial residual = 5.3256e-08, Final residual = 8.22969e-09, No Iterations 2
smoothSolver:  Solving for Uy, Initial residual = 1.11883e-07, Final residual = 3.06725e-09, No Iterations 4
GAMG:  Solving for p, Initial residual = 1.11564e-06, Final residual = 7.12416e-07, No Iterations 1
time step continuity errors : sum local = 2.79492e-07, global = -9.43817e-17, cumulative = 5.56081e-14
smoothSolver:  Solving for nuTilda, Initial residual = 9.18079e-09, Final residual = 9.18079e-09, No Iterations 0
ExecutionTime = 337.33 s  ClockTime = 337 s

forces wings output:
    sum of forces:
        pressure : (1.4095 29.8315 -8.79758e-21)
        viscous  : (0.154065 -0.0166463 -4.18531e-22)
        porous   : (0 0 0)
    sum of moments:
        pressure : (-1.49158 0.0704749 4.25092)
        viscous  : (0.000832317 0.00770325 -0.0133767)
        porous   : (0 0 0)

End

