/*---------------------------------------------------------------------------*\
| =========                 |                                                 |
| \\      /  F ield         | OpenFOAM: The Open Source CFD Toolbox           |
|  \\    /   O peration     | Version:  2.3.0                                 |
|   \\  /    A nd           | Web:      www.OpenFOAM.org                      |
|    \\/     M anipulation  |                                                 |
\*---------------------------------------------------------------------------*/
Build  : 2.3.0-f5222ca19ce6
Exec   : simpleFoam -case Runs/first_flatplate_300_2/case
Date   : Jan 11 2015
Time   : 12:38:07
Host   : "lordvon-XPS-8300"
PID    : 5776
Case   : Runs/first_flatplate_300_2/case
nProcs : 1
sigFpe : Enabling floating point exception trapping (FOAM_SIGFPE).
fileModificationChecking : Monitoring run-time modified files using timeStampMaster
allowSystemOperations : Disallowing user-supplied system call operations

// * * * * * * * * * * * * * * * * * * * * * * * * * * * * * * * * * * * * * //
Create time

Create mesh for time = 0

Reading field p

Reading field U

Reading/calculating face flux field phi

Selecting incompressible transport model Newtonian
Selecting RAS turbulence model SpalartAllmaras
SpalartAllmarasCoeffs
{
    sigmaNut        0.66666;
    kappa           0.41;
    Cb1             0.1355;
    Cb2             0.622;
    Cw2             0.3;
    Cw3             2;
    Cv1             7.1;
    Cv2             5;
}

    Employing Ashford correction
No finite volume options present


SIMPLE: convergence criteria
    field p	 tolerance 1e-12
    field U	 tolerance 1e-12
    field nuTilda	 tolerance 1e-12


Starting time loop

forces wings:
    Not including porosity effects

Time = 1

smoothSolver:  Solving for Ux, Initial residual = 1, Final residual = 0.00497622, No Iterations 6
smoothSolver:  Solving for Uy, Initial residual = 1, Final residual = 0.00261533, No Iterations 6
GAMG:  Solving for p, Initial residual = 1, Final residual = 0.00723024, No Iterations 7
time step continuity errors : sum local = 0.000584175, global = -1.08023e-16, cumulative = -1.08023e-16
smoothSolver:  Solving for nuTilda, Initial residual = 1, Final residual = 0.00393757, No Iterations 4
ExecutionTime = 0.34 s  ClockTime = 0 s

Time = 2

smoothSolver:  Solving for Ux, Initial residual = 0.37166, Final residual = 0.00109932, No Iterations 8
smoothSolver:  Solving for Uy, Initial residual = 0.671168, Final residual = 0.00368041, No Iterations 8
GAMG:  Solving for p, Initial residual = 0.699755, Final residual = 0.00643699, No Iterations 4
time step continuity errors : sum local = 0.000964208, global = 6.21171e-17, cumulative = -4.59057e-17
smoothSolver:  Solving for nuTilda, Initial residual = 0.18728, Final residual = 0.000726052, No Iterations 6
ExecutionTime = 0.42 s  ClockTime = 0 s

Time = 3

smoothSolver:  Solving for Ux, Initial residual = 0.18252, Final residual = 0.000563209, No Iterations 8
smoothSolver:  Solving for Uy, Initial residual = 0.256763, Final residual = 0.00136866, No Iterations 8
GAMG:  Solving for p, Initial residual = 0.501568, Final residual = 0.00356452, No Iterations 6
time step continuity errors : sum local = 0.000729171, global = 1.74741e-16, cumulative = 1.28835e-16
smoothSolver:  Solving for nuTilda, Initial residual = 0.0963542, Final residual = 0.000874913, No Iterations 6
ExecutionTime = 0.51 s  ClockTime = 1 s

Time = 4

smoothSolver:  Solving for Ux, Initial residual = 0.0902362, Final residual = 0.000783733, No Iterations 6
smoothSolver:  Solving for Uy, Initial residual = 0.0814549, Final residual = 0.000387918, No Iterations 8
GAMG:  Solving for p, Initial residual = 0.362605, Final residual = 0.00261815, No Iterations 5
time step continuity errors : sum local = 0.0006024, global = 5.12757e-17, cumulative = 1.80111e-16
smoothSolver:  Solving for nuTilda, Initial residual = 0.0731055, Final residual = 0.000207778, No Iterations 8
ExecutionTime = 0.59 s  ClockTime = 1 s

Time = 5

smoothSolver:  Solving for Ux, Initial residual = 0.108378, Final residual = 0.000344833, No Iterations 8
smoothSolver:  Solving for Uy, Initial residual = 0.231727, Final residual = 0.00121539, No Iterations 8
GAMG:  Solving for p, Initial residual = 0.288657, Final residual = 0.00182086, No Iterations 5
time step continuity errors : sum local = 0.000461385, global = -2.64046e-16, cumulative = -8.39353e-17
smoothSolver:  Solving for nuTilda, Initial residual = 0.0598523, Final residual = 0.00018852, No Iterations 8
ExecutionTime = 0.68 s  ClockTime = 1 s

forces wings output:
    sum of forces:
        pressure : (-9.14331 -261.83 2.27334e-19)
        viscous  : (0.536337 -0.0132146 -1.7957e-21)
        porous   : (0 0 0)
    sum of moments:
        pressure : (13.0915 -0.457165 -65.9594)
        viscous  : (0.000660732 0.0268169 0.00139699)
        porous   : (0 0 0)

Time = 6

smoothSolver:  Solving for Ux, Initial residual = 0.0853856, Final residual = 0.000244472, No Iterations 8
smoothSolver:  Solving for Uy, Initial residual = 0.21873, Final residual = 0.00112338, No Iterations 8
GAMG:  Solving for p, Initial residual = 0.232781, Final residual = 0.0015635, No Iterations 6
time step continuity errors : sum local = 0.00042533, global = 1.0299e-16, cumulative = 1.90549e-17
smoothSolver:  Solving for nuTilda, Initial residual = 0.0496751, Final residual = 0.000164508, No Iterations 8
ExecutionTime = 0.77 s  ClockTime = 1 s

Time = 7

smoothSolver:  Solving for Ux, Initial residual = 0.0611943, Final residual = 0.000602344, No Iterations 6
smoothSolver:  Solving for Uy, Initial residual = 0.167547, Final residual = 0.00082881, No Iterations 8
GAMG:  Solving for p, Initial residual = 0.178464, Final residual = 0.0008915, No Iterations 5
time step continuity errors : sum local = 0.000248318, global = 9.7658e-17, cumulative = 1.16713e-16
smoothSolver:  Solving for nuTilda, Initial residual = 0.0417319, Final residual = 0.000143239, No Iterations 8
ExecutionTime = 0.86 s  ClockTime = 1 s

Time = 8

smoothSolver:  Solving for Ux, Initial residual = 0.0645191, Final residual = 0.000202617, No Iterations 8
smoothSolver:  Solving for Uy, Initial residual = 0.186133, Final residual = 0.000955053, No Iterations 8
GAMG:  Solving for p, Initial residual = 0.164237, Final residual = 0.00106731, No Iterations 5
time step continuity errors : sum local = 0.000314456, global = 8.68536e-17, cumulative = 2.03567e-16
smoothSolver:  Solving for nuTilda, Initial residual = 0.0355799, Final residual = 0.000125735, No Iterations 8
ExecutionTime = 0.94 s  ClockTime = 1 s

Time = 9

smoothSolver:  Solving for Ux, Initial residual = 0.0453665, Final residual = 0.000132005, No Iterations 8
smoothSolver:  Solving for Uy, Initial residual = 0.0605576, Final residual = 0.000290006, No Iterations 8
GAMG:  Solving for p, Initial residual = 0.134282, Final residual = 0.00100014, No Iterations 6
time step continuity errors : sum local = 0.000301907, global = 2.15874e-16, cumulative = 4.1944e-16
smoothSolver:  Solving for nuTilda, Initial residual = 0.0306228, Final residual = 0.000111408, No Iterations 8
ExecutionTime = 1.03 s  ClockTime = 1 s

Time = 10

smoothSolver:  Solving for Ux, Initial residual = 0.0344477, Final residual = 8.86068e-05, No Iterations 8
smoothSolver:  Solving for Uy, Initial residual = 0.0784409, Final residual = 0.000375654, No Iterations 8
GAMG:  Solving for p, Initial residual = 0.112215, Final residual = 0.00103654, No Iterations 4
time step continuity errors : sum local = 0.000311579, global = 8.6316e-17, cumulative = 5.05756e-16
smoothSolver:  Solving for nuTilda, Initial residual = 0.026595, Final residual = 9.97191e-05, No Iterations 8
ExecutionTime = 1.11 s  ClockTime = 1 s

forces wings output:
    sum of forces:
        pressure : (-5.50529 -157.651 9.39377e-20)
        viscous  : (0.52074 -0.0232227 -1.1529e-21)
        porous   : (0 0 0)
    sum of moments:
        pressure : (7.88255 -0.275265 -40.9115)
        viscous  : (0.00116113 0.026037 -0.00129561)
        porous   : (0 0 0)

Time = 11

smoothSolver:  Solving for Ux, Initial residual = 0.0335185, Final residual = 9.8751e-05, No Iterations 8
smoothSolver:  Solving for Uy, Initial residual = 0.109799, Final residual = 0.000539578, No Iterations 8
GAMG:  Solving for p, Initial residual = 0.107324, Final residual = 0.000765961, No Iterations 5
time step continuity errors : sum local = 0.000237331, global = -1.15406e-16, cumulative = 3.90351e-16
smoothSolver:  Solving for nuTilda, Initial residual = 0.0233781, Final residual = 9.00383e-05, No Iterations 8
ExecutionTime = 1.2 s  ClockTime = 1 s

Time = 12

smoothSolver:  Solving for Ux, Initial residual = 0.0263432, Final residual = 6.45571e-05, No Iterations 8
smoothSolver:  Solving for Uy, Initial residual = 0.0378124, Final residual = 0.000162596, No Iterations 8
GAMG:  Solving for p, Initial residual = 0.0894557, Final residual = 0.000832879, No Iterations 5
time step continuity errors : sum local = 0.000259871, global = 9.44774e-17, cumulative = 4.84828e-16
smoothSolver:  Solving for nuTilda, Initial residual = 0.0207583, Final residual = 8.18213e-05, No Iterations 8
ExecutionTime = 1.28 s  ClockTime = 1 s

Time = 13

smoothSolver:  Solving for Ux, Initial residual = 0.0239368, Final residual = 0.00023561, No Iterations 6
smoothSolver:  Solving for Uy, Initial residual = 0.0651102, Final residual = 0.000311699, No Iterations 8
GAMG:  Solving for p, Initial residual = 0.0757234, Final residual = 0.000736167, No Iterations 4
time step continuity errors : sum local = 0.000228863, global = 3.97235e-17, cumulative = 5.24552e-16
smoothSolver:  Solving for nuTilda, Initial residual = 0.0186641, Final residual = 7.48163e-05, No Iterations 8
ExecutionTime = 1.36 s  ClockTime = 1 s

Time = 14

smoothSolver:  Solving for Ux, Initial residual = 0.0227582, Final residual = 6.21475e-05, No Iterations 8
smoothSolver:  Solving for Uy, Initial residual = 0.0545204, Final residual = 0.000259926, No Iterations 8
GAMG:  Solving for p, Initial residual = 0.0737061, Final residual = 0.00050999, No Iterations 5
time step continuity errors : sum local = 0.000159715, global = -9.76506e-17, cumulative = 4.26901e-16
smoothSolver:  Solving for nuTilda, Initial residual = 0.0168492, Final residual = 6.87265e-05, No Iterations 8
ExecutionTime = 1.45 s  ClockTime = 2 s

Time = 15

smoothSolver:  Solving for Ux, Initial residual = 0.0180157, Final residual = 4.72184e-05, No Iterations 8
smoothSolver:  Solving for Uy, Initial residual = 0.0183634, Final residual = 7.20003e-05, No Iterations 8
GAMG:  Solving for p, Initial residual = 0.0618359, Final residual = 0.000323772, No Iterations 5
time step continuity errors : sum local = 0.000102167, global = -2.05039e-16, cumulative = 2.21862e-16
smoothSolver:  Solving for nuTilda, Initial residual = 0.0153105, Final residual = 6.35757e-05, No Iterations 8
ExecutionTime = 1.53 s  ClockTime = 2 s

forces wings output:
    sum of forces:
        pressure : (-1.69776 -48.6175 -1.98671e-20)
        viscous  : (0.505468 -0.0216142 6.89258e-22)
        porous   : (0 0 0)
    sum of moments:
        pressure : (2.43087 -0.084888 -13.3761)
        viscous  : (0.00108071 0.0252734 -0.00104435)
        porous   : (0 0 0)

Time = 16

smoothSolver:  Solving for Ux, Initial residual = 0.0147531, Final residual = 3.8555e-05, No Iterations 8
smoothSolver:  Solving for Uy, Initial residual = 0.0378305, Final residual = 0.000174488, No Iterations 8
GAMG:  Solving for p, Initial residual = 0.0535399, Final residual = 0.000292269, No Iterations 5
time step continuity errors : sum local = 9.21113e-05, global = -7.85434e-17, cumulative = 1.43319e-16
smoothSolver:  Solving for nuTilda, Initial residual = 0.013977, Final residual = 5.91809e-05, No Iterations 8
ExecutionTime = 1.62 s  ClockTime = 2 s

Time = 17

smoothSolver:  Solving for Ux, Initial residual = 0.0120457, Final residual = 3.22104e-05, No Iterations 8
smoothSolver:  Solving for Uy, Initial residual = 0.0324288, Final residual = 0.000149262, No Iterations 8
GAMG:  Solving for p, Initial residual = 0.0508894, Final residual = 0.000316116, No Iterations 5
time step continuity errors : sum local = 0.000100048, global = -1.66815e-16, cumulative = -2.34965e-17
smoothSolver:  Solving for nuTilda, Initial residual = 0.0128169, Final residual = 5.53562e-05, No Iterations 8
ExecutionTime = 1.71 s  ClockTime = 2 s

Time = 18

smoothSolver:  Solving for Ux, Initial residual = 0.00988247, Final residual = 2.34329e-05, No Iterations 8
smoothSolver:  Solving for Uy, Initial residual = 0.0177293, Final residual = 7.14818e-05, No Iterations 8
GAMG:  Solving for p, Initial residual = 0.0437021, Final residual = 0.000203119, No Iterations 5
time step continuity errors : sum local = 6.36349e-05, global = 6.02107e-17, cumulative = 3.67142e-17
smoothSolver:  Solving for nuTilda, Initial residual = 0.0118242, Final residual = 5.19784e-05, No Iterations 8
ExecutionTime = 1.8 s  ClockTime = 2 s

Time = 19

smoothSolver:  Solving for Ux, Initial residual = 0.00982324, Final residual = 2.50598e-05, No Iterations 8
smoothSolver:  Solving for Uy, Initial residual = 0.026636, Final residual = 0.000115589, No Iterations 8
GAMG:  Solving for p, Initial residual = 0.0381224, Final residual = 0.000285995, No Iterations 5
time step continuity errors : sum local = 8.90042e-05, global = -2.26432e-16, cumulative = -1.89718e-16
smoothSolver:  Solving for nuTilda, Initial residual = 0.0109572, Final residual = 4.89486e-05, No Iterations 8
ExecutionTime = 1.88 s  ClockTime = 2 s

Time = 20

smoothSolver:  Solving for Ux, Initial residual = 0.00949786, Final residual = 2.64062e-05, No Iterations 8
smoothSolver:  Solving for Uy, Initial residual = 0.017903, Final residual = 7.09541e-05, No Iterations 8
GAMG:  Solving for p, Initial residual = 0.0344842, Final residual = 0.000236706, No Iterations 5
time step continuity errors : sum local = 7.396e-05, global = -1.19541e-16, cumulative = -3.09258e-16
smoothSolver:  Solving for nuTilda, Initial residual = 0.010184, Final residual = 4.62134e-05, No Iterations 8
ExecutionTime = 1.96 s  ClockTime = 2 s

forces wings output:
    sum of forces:
        pressure : (-0.133806 -3.83169 -7.04739e-20)
        viscous  : (0.490324 -0.0186963 1.84742e-21)
        porous   : (0 0 0)
    sum of moments:
        pressure : (0.191585 -0.0066903 -1.6762)
        viscous  : (0.000934815 0.0245162 -0.000432713)
        porous   : (0 0 0)

Time = 21

smoothSolver:  Solving for Ux, Initial residual = 0.0084979, Final residual = 2.30984e-05, No Iterations 8
smoothSolver:  Solving for Uy, Initial residual = 0.0143808, Final residual = 5.25212e-05, No Iterations 8
GAMG:  Solving for p, Initial residual = 0.0290297, Final residual = 0.000229676, No Iterations 4
time step continuity errors : sum local = 7.12902e-05, global = 2.1639e-16, cumulative = -9.28686e-17
smoothSolver:  Solving for nuTilda, Initial residual = 0.00949687, Final residual = 4.37407e-05, No Iterations 8
ExecutionTime = 2.05 s  ClockTime = 2 s

Time = 22

smoothSolver:  Solving for Ux, Initial residual = 0.00722723, Final residual = 1.94673e-05, No Iterations 8
smoothSolver:  Solving for Uy, Initial residual = 0.0184624, Final residual = 7.43734e-05, No Iterations 8
GAMG:  Solving for p, Initial residual = 0.0253228, Final residual = 0.000154379, No Iterations 5
time step continuity errors : sum local = 4.80779e-05, global = 7.55669e-17, cumulative = -1.73017e-17
smoothSolver:  Solving for nuTilda, Initial residual = 0.00888935, Final residual = 4.14882e-05, No Iterations 8
ExecutionTime = 2.14 s  ClockTime = 2 s

Time = 23

smoothSolver:  Solving for Ux, Initial residual = 0.00566455, Final residual = 1.56701e-05, No Iterations 8
smoothSolver:  Solving for Uy, Initial residual = 0.0116316, Final residual = 4.38796e-05, No Iterations 8
GAMG:  Solving for p, Initial residual = 0.0236306, Final residual = 0.000128797, No Iterations 5
time step continuity errors : sum local = 4.03578e-05, global = 2.37337e-16, cumulative = 2.20035e-16
smoothSolver:  Solving for nuTilda, Initial residual = 0.00835121, Final residual = 3.9421e-05, No Iterations 8
ExecutionTime = 2.22 s  ClockTime = 2 s

Time = 24

smoothSolver:  Solving for Ux, Initial residual = 0.00470167, Final residual = 1.33451e-05, No Iterations 8
smoothSolver:  Solving for Uy, Initial residual = 0.0110479, Final residual = 4.39424e-05, No Iterations 8
GAMG:  Solving for p, Initial residual = 0.0200006, Final residual = 9.19805e-05, No Iterations 5
time step continuity errors : sum local = 2.8716e-05, global = 6.34347e-17, cumulative = 2.8347e-16
smoothSolver:  Solving for nuTilda, Initial residual = 0.00787177, Final residual = 3.74876e-05, No Iterations 8
ExecutionTime = 2.31 s  ClockTime = 2 s

Time = 25

smoothSolver:  Solving for Ux, Initial residual = 0.00454861, Final residual = 1.38137e-05, No Iterations 8
smoothSolver:  Solving for Uy, Initial residual = 0.010351, Final residual = 4.31538e-05, No Iterations 8
GAMG:  Solving for p, Initial residual = 0.0169902, Final residual = 0.000137591, No Iterations 5
time step continuity errors : sum local = 4.27954e-05, global = -1.87653e-16, cumulative = 9.58166e-17
smoothSolver:  Solving for nuTilda, Initial residual = 0.00744823, Final residual = 3.5692e-05, No Iterations 8
ExecutionTime = 2.4 s  ClockTime = 2 s

forces wings output:
    sum of forces:
        pressure : (0.222305 6.366 -6.9007e-20)
        viscous  : (0.476004 -0.0169468 1.91214e-21)
        porous   : (0 0 0)
    sum of moments:
        pressure : (-0.3183 0.0111153 0.969505)
        viscous  : (0.000847339 0.0238002 -0.000113123)
        porous   : (0 0 0)

Time = 26

smoothSolver:  Solving for Ux, Initial residual = 0.00426875, Final residual = 1.38644e-05, No Iterations 8
smoothSolver:  Solving for Uy, Initial residual = 0.00588283, Final residual = 2.22482e-05, No Iterations 8
GAMG:  Solving for p, Initial residual = 0.0151532, Final residual = 8.01565e-05, No Iterations 5
time step continuity errors : sum local = 2.49554e-05, global = 3.52355e-17, cumulative = 1.31052e-16
smoothSolver:  Solving for nuTilda, Initial residual = 0.00707448, Final residual = 3.40098e-05, No Iterations 8
bounding nuTilda, min: -4.12993e-05 max: 0.400846 average: 0.0850462
ExecutionTime = 2.49 s  ClockTime = 3 s

Time = 27

smoothSolver:  Solving for Ux, Initial residual = 0.00392007, Final residual = 1.33497e-05, No Iterations 8
smoothSolver:  Solving for Uy, Initial residual = 0.00723084, Final residual = 2.89272e-05, No Iterations 8
GAMG:  Solving for p, Initial residual = 0.0129087, Final residual = 0.000106533, No Iterations 4
time step continuity errors : sum local = 3.30113e-05, global = 1.1292e-16, cumulative = 2.43972e-16
smoothSolver:  Solving for nuTilda, Initial residual = 0.00674345, Final residual = 3.24631e-05, No Iterations 8
ExecutionTime = 2.57 s  ClockTime = 3 s

Time = 28

smoothSolver:  Solving for Ux, Initial residual = 0.00350997, Final residual = 1.21185e-05, No Iterations 8
smoothSolver:  Solving for Uy, Initial residual = 0.00695883, Final residual = 2.8615e-05, No Iterations 8
GAMG:  Solving for p, Initial residual = 0.0107686, Final residual = 6.10285e-05, No Iterations 5
time step continuity errors : sum local = 1.89913e-05, global = -4.5185e-17, cumulative = 1.98787e-16
smoothSolver:  Solving for nuTilda, Initial residual = 0.0064334, Final residual = 3.10132e-05, No Iterations 8
ExecutionTime = 2.66 s  ClockTime = 3 s

Time = 29

smoothSolver:  Solving for Ux, Initial residual = 0.00316219, Final residual = 1.05512e-05, No Iterations 8
smoothSolver:  Solving for Uy, Initial residual = 0.00480556, Final residual = 1.9205e-05, No Iterations 8
GAMG:  Solving for p, Initial residual = 0.00949952, Final residual = 5.32758e-05, No Iterations 5
time step continuity errors : sum local = 1.66618e-05, global = -4.24273e-16, cumulative = -2.25486e-16
smoothSolver:  Solving for nuTilda, Initial residual = 0.00614756, Final residual = 2.96894e-05, No Iterations 8
bounding nuTilda, min: -0.000137796 max: 0.400661 average: 0.0821518
ExecutionTime = 2.75 s  ClockTime = 3 s

Time = 30

smoothSolver:  Solving for Ux, Initial residual = 0.00303499, Final residual = 9.67447e-06, No Iterations 8
smoothSolver:  Solving for Uy, Initial residual = 0.00494928, Final residual = 2.14268e-05, No Iterations 8
GAMG:  Solving for p, Initial residual = 0.00879743, Final residual = 4.08057e-05, No Iterations 5
time step continuity errors : sum local = 1.27598e-05, global = 1.57574e-18, cumulative = -2.2391e-16
smoothSolver:  Solving for nuTilda, Initial residual = 0.00587584, Final residual = 2.84229e-05, No Iterations 8
ExecutionTime = 2.83 s  ClockTime = 3 s

forces wings output:
    sum of forces:
        pressure : (0.204155 5.84626 -6.42282e-20)
        viscous  : (0.462407 -0.0160709 1.89726e-21)
        porous   : (0 0 0)
    sum of moments:
        pressure : (-0.292313 0.0102078 0.725797)
        viscous  : (0.000803544 0.0231203 -1.68053e-05)
        porous   : (0 0 0)

Time = 31

smoothSolver:  Solving for Ux, Initial residual = 0.00302679, Final residual = 9.64878e-06, No Iterations 8
smoothSolver:  Solving for Uy, Initial residual = 0.00398904, Final residual = 1.72601e-05, No Iterations 8
GAMG:  Solving for p, Initial residual = 0.00769322, Final residual = 4.72939e-05, No Iterations 5
time step continuity errors : sum local = 1.47183e-05, global = -1.08521e-16, cumulative = -3.32431e-16
smoothSolver:  Solving for nuTilda, Initial residual = 0.0056306, Final residual = 2.7274e-05, No Iterations 8
bounding nuTilda, min: -3.20324e-06 max: 0.400607 average: 0.0803454
ExecutionTime = 2.93 s  ClockTime = 3 s

Time = 32

smoothSolver:  Solving for Ux, Initial residual = 0.00295244, Final residual = 9.6707e-06, No Iterations 8
smoothSolver:  Solving for Uy, Initial residual = 0.00341953, Final residual = 1.36004e-05, No Iterations 8
GAMG:  Solving for p, Initial residual = 0.00655794, Final residual = 5.53103e-05, No Iterations 4
time step continuity errors : sum local = 1.72576e-05, global = 4.07097e-17, cumulative = -2.91721e-16
smoothSolver:  Solving for nuTilda, Initial residual = 0.00539605, Final residual = 2.61479e-05, No Iterations 8
bounding nuTilda, min: -0.00024629 max: 0.400651 average: 0.0794745
ExecutionTime = 3.01 s  ClockTime = 3 s

Time = 33

smoothSolver:  Solving for Ux, Initial residual = 0.00277684, Final residual = 9.30985e-06, No Iterations 8
smoothSolver:  Solving for Uy, Initial residual = 0.00377021, Final residual = 1.54732e-05, No Iterations 8
GAMG:  Solving for p, Initial residual = 0.00576945, Final residual = 4.85203e-05, No Iterations 4
time step continuity errors : sum local = 1.51416e-05, global = -2.55428e-17, cumulative = -3.17264e-16
smoothSolver:  Solving for nuTilda, Initial residual = 0.00518564, Final residual = 2.51424e-05, No Iterations 8
bounding nuTilda, min: -5.49974e-05 max: 0.400723 average: 0.0786273
ExecutionTime = 3.09 s  ClockTime = 3 s

Time = 34

smoothSolver:  Solving for Ux, Initial residual = 0.0025713, Final residual = 8.72489e-06, No Iterations 8
smoothSolver:  Solving for Uy, Initial residual = 0.00317496, Final residual = 1.33768e-05, No Iterations 8
GAMG:  Solving for p, Initial residual = 0.0050446, Final residual = 2.29544e-05, No Iterations 5
time step continuity errors : sum local = 7.15414e-06, global = 1.58318e-16, cumulative = -1.58946e-16
smoothSolver:  Solving for nuTilda, Initial residual = 0.00497569, Final residual = 2.41365e-05, No Iterations 8
bounding nuTilda, min: -4.43025e-05 max: 0.400798 average: 0.0777971
ExecutionTime = 3.18 s  ClockTime = 3 s

Time = 35

smoothSolver:  Solving for Ux, Initial residual = 0.00240884, Final residual = 8.23227e-06, No Iterations 8
smoothSolver:  Solving for Uy, Initial residual = 0.00283639, Final residual = 1.23891e-05, No Iterations 8
GAMG:  Solving for p, Initial residual = 0.00455941, Final residual = 4.12357e-05, No Iterations 4
time step continuity errors : sum local = 1.28412e-05, global = 1.82012e-16, cumulative = 2.30661e-17
smoothSolver:  Solving for nuTilda, Initial residual = 0.00478638, Final residual = 2.32555e-05, No Iterations 8
bounding nuTilda, min: -9.35603e-05 max: 0.400856 average: 0.0769898
ExecutionTime = 3.26 s  ClockTime = 3 s

forces wings output:
    sum of forces:
        pressure : (0.150166 4.30022 -6.1585e-20)
        viscous  : (0.448811 -0.0155364 1.94704e-21)
        porous   : (0 0 0)
    sum of moments:
        pressure : (-0.215011 0.00750832 0.253023)
        viscous  : (0.000776819 0.0224405 -3.76582e-06)
        porous   : (0 0 0)

Time = 36

smoothSolver:  Solving for Ux, Initial residual = 0.00231636, Final residual = 8.01556e-06, No Iterations 8
smoothSolver:  Solving for Uy, Initial residual = 0.00257675, Final residual = 1.2033e-05, No Iterations 8
GAMG:  Solving for p, Initial residual = 0.00417245, Final residual = 2.09449e-05, No Iterations 5
time step continuity errors : sum local = 6.48045e-06, global = 5.10365e-18, cumulative = 2.81697e-17
smoothSolver:  Solving for nuTilda, Initial residual = 0.00459727, Final residual = 2.23565e-05, No Iterations 8
bounding nuTilda, min: -8.56848e-05 max: 0.400886 average: 0.0761969
ExecutionTime = 3.35 s  ClockTime = 3 s

Time = 37

smoothSolver:  Solving for Ux, Initial residual = 0.00227811, Final residual = 8.08431e-06, No Iterations 8
smoothSolver:  Solving for Uy, Initial residual = 0.00205633, Final residual = 9.92432e-06, No Iterations 8
GAMG:  Solving for p, Initial residual = 0.00368541, Final residual = 1.65944e-05, No Iterations 5
time step continuity errors : sum local = 5.16199e-06, global = -8.72097e-17, cumulative = -5.904e-17
smoothSolver:  Solving for nuTilda, Initial residual = 0.00443113, Final residual = 2.15742e-05, No Iterations 8
bounding nuTilda, min: -0.000126159 max: 0.400886 average: 0.075426
ExecutionTime = 3.44 s  ClockTime = 4 s

Time = 38

smoothSolver:  Solving for Ux, Initial residual = 0.00220734, Final residual = 8.04875e-06, No Iterations 8
smoothSolver:  Solving for Uy, Initial residual = 0.00207608, Final residual = 9.88787e-06, No Iterations 8
GAMG:  Solving for p, Initial residual = 0.00329592, Final residual = 2.19462e-05, No Iterations 4
time step continuity errors : sum local = 6.83326e-06, global = -1.4314e-16, cumulative = -2.0218e-16
smoothSolver:  Solving for nuTilda, Initial residual = 0.00426725, Final residual = 2.07668e-05, No Iterations 8
bounding nuTilda, min: -0.000111037 max: 0.400866 average: 0.0746679
ExecutionTime = 3.52 s  ClockTime = 4 s

Time = 39

smoothSolver:  Solving for Ux, Initial residual = 0.00210944, Final residual = 7.87423e-06, No Iterations 8
smoothSolver:  Solving for Uy, Initial residual = 0.00203193, Final residual = 9.91236e-06, No Iterations 8
GAMG:  Solving for p, Initial residual = 0.00297826, Final residual = 2.06485e-05, No Iterations 4
time step continuity errors : sum local = 6.39334e-06, global = -5.33925e-17, cumulative = -2.55573e-16
smoothSolver:  Solving for nuTilda, Initial residual = 0.00412178, Final residual = 2.0062e-05, No Iterations 8
bounding nuTilda, min: -0.000153353 max: 0.400834 average: 0.0739305
ExecutionTime = 3.6 s  ClockTime = 4 s

Time = 40

smoothSolver:  Solving for Ux, Initial residual = 0.00201787, Final residual = 7.6178e-06, No Iterations 8
smoothSolver:  Solving for Uy, Initial residual = 0.00183875, Final residual = 9.31075e-06, No Iterations 8
GAMG:  Solving for p, Initial residual = 0.00266189, Final residual = 2.04267e-05, No Iterations 4
time step continuity errors : sum local = 6.33557e-06, global = -9.4191e-17, cumulative = -3.49764e-16
smoothSolver:  Solving for nuTilda, Initial residual = 0.00397542, Final residual = 1.9337e-05, No Iterations 8
bounding nuTilda, min: -0.000131293 max: 0.400803 average: 0.0732047
ExecutionTime = 3.68 s  ClockTime = 4 s

forces wings output:
    sum of forces:
        pressure : (0.129727 3.71491 -6.10264e-20)
        viscous  : (0.43679 -0.015131 1.98813e-21)
        porous   : (0 0 0)
    sum of moments:
        pressure : (-0.185745 0.00648635 0.0986941)
        viscous  : (0.000756549 0.0218395 -1.83395e-05)
        porous   : (0 0 0)

Time = 41

smoothSolver:  Solving for Ux, Initial residual = 0.00194348, Final residual = 7.39291e-06, No Iterations 8
smoothSolver:  Solving for Uy, Initial residual = 0.00182808, Final residual = 9.55468e-06, No Iterations 8
GAMG:  Solving for p, Initial residual = 0.00235479, Final residual = 1.90199e-05, No Iterations 4
time step continuity errors : sum local = 5.90249e-06, global = 3.6675e-17, cumulative = -3.13089e-16
smoothSolver:  Solving for nuTilda, Initial residual = 0.00384367, Final residual = 1.86979e-05, No Iterations 8
bounding nuTilda, min: -0.00017517 max: 0.400777 average: 0.072498
ExecutionTime = 3.77 s  ClockTime = 4 s

Time = 42

smoothSolver:  Solving for Ux, Initial residual = 0.00188173, Final residual = 7.2168e-06, No Iterations 8
smoothSolver:  Solving for Uy, Initial residual = 0.00168686, Final residual = 9.03156e-06, No Iterations 8
GAMG:  Solving for p, Initial residual = 0.00211183, Final residual = 1.72286e-05, No Iterations 4
time step continuity errors : sum local = 5.35169e-06, global = -2.30628e-16, cumulative = -5.43716e-16
smoothSolver:  Solving for nuTilda, Initial residual = 0.00371249, Final residual = 1.80501e-05, No Iterations 8
bounding nuTilda, min: -0.00014643 max: 0.40076 average: 0.0718026
ExecutionTime = 3.85 s  ClockTime = 4 s

Time = 43

smoothSolver:  Solving for Ux, Initial residual = 0.00182607, Final residual = 7.06915e-06, No Iterations 8
smoothSolver:  Solving for Uy, Initial residual = 0.00156132, Final residual = 8.42653e-06, No Iterations 8
GAMG:  Solving for p, Initial residual = 0.00193792, Final residual = 1.17559e-05, No Iterations 4
time step continuity errors : sum local = 3.64993e-06, global = 2.0851e-16, cumulative = -3.35207e-16
smoothSolver:  Solving for nuTilda, Initial residual = 0.00359298, Final residual = 1.74662e-05, No Iterations 8
bounding nuTilda, min: -0.00019223 max: 0.400753 average: 0.0711243
ExecutionTime = 3.93 s  ClockTime = 4 s

Time = 44

smoothSolver:  Solving for Ux, Initial residual = 0.00176322, Final residual = 6.92132e-06, No Iterations 8
smoothSolver:  Solving for Uy, Initial residual = 0.00152476, Final residual = 8.30477e-06, No Iterations 8
GAMG:  Solving for p, Initial residual = 0.00176938, Final residual = 1.02607e-05, No Iterations 4
time step continuity errors : sum local = 3.19803e-06, global = 2.09628e-16, cumulative = -1.25578e-16
smoothSolver:  Solving for nuTilda, Initial residual = 0.00347537, Final residual = 1.68827e-05, No Iterations 8
bounding nuTilda, min: -0.000157121 max: 0.400752 average: 0.0704572
ExecutionTime = 4.02 s  ClockTime = 4 s

Time = 45

smoothSolver:  Solving for Ux, Initial residual = 0.00170085, Final residual = 6.78936e-06, No Iterations 8
smoothSolver:  Solving for Uy, Initial residual = 0.00144817, Final residual = 8.07992e-06, No Iterations 8
GAMG:  Solving for p, Initial residual = 0.00156904, Final residual = 9.93414e-06, No Iterations 4
time step continuity errors : sum local = 3.09515e-06, global = -1.23652e-16, cumulative = -2.49231e-16
smoothSolver:  Solving for nuTilda, Initial residual = 0.00336654, Final residual = 1.63465e-05, No Iterations 8
bounding nuTilda, min: -0.000205381 max: 0.400755 average: 0.0698053
ExecutionTime = 4.11 s  ClockTime = 4 s

forces wings output:
    sum of forces:
        pressure : (0.128189 3.67086 -6.14514e-20)
        viscous  : (0.424094 -0.0146981 2.09988e-21)
        porous   : (0 0 0)
    sum of moments:
        pressure : (-0.183543 0.00640944 0.0948028)
        viscous  : (0.000734907 0.0212047 -2.29191e-05)
        porous   : (0 0 0)

Time = 46

smoothSolver:  Solving for Ux, Initial residual = 0.00164894, Final residual = 6.66359e-06, No Iterations 8
smoothSolver:  Solving for Uy, Initial residual = 0.00143559, Final residual = 8.08483e-06, No Iterations 8
GAMG:  Solving for p, Initial residual = 0.00138383, Final residual = 8.24459e-06, No Iterations 4
time step continuity errors : sum local = 2.55448e-06, global = 1.72111e-16, cumulative = -7.712e-17
smoothSolver:  Solving for nuTilda, Initial residual = 0.00326043, Final residual = 1.58202e-05, No Iterations 8
bounding nuTilda, min: -0.000164146 max: 0.400761 average: 0.0691647
ExecutionTime = 4.19 s  ClockTime = 4 s

Time = 47

smoothSolver:  Solving for Ux, Initial residual = 0.0016088, Final residual = 6.57394e-06, No Iterations 8
smoothSolver:  Solving for Uy, Initial residual = 0.00142637, Final residual = 8.11403e-06, No Iterations 8
GAMG:  Solving for p, Initial residual = 0.0012678, Final residual = 8.42675e-06, No Iterations 4
time step continuity errors : sum local = 2.60478e-06, global = 1.42787e-16, cumulative = 6.5667e-17
smoothSolver:  Solving for nuTilda, Initial residual = 0.00316093, Final residual = 1.53292e-05, No Iterations 8
bounding nuTilda, min: -0.000215117 max: 0.400767 average: 0.0685376
ExecutionTime = 4.27 s  ClockTime = 4 s

Time = 48

smoothSolver:  Solving for Ux, Initial residual = 0.00157355, Final residual = 6.48501e-06, No Iterations 8
smoothSolver:  Solving for Uy, Initial residual = 0.00136476, Final residual = 7.93354e-06, No Iterations 8
GAMG:  Solving for p, Initial residual = 0.00113899, Final residual = 6.96358e-06, No Iterations 4
time step continuity errors : sum local = 2.16571e-06, global = 2.53845e-16, cumulative = 3.19512e-16
smoothSolver:  Solving for nuTilda, Initial residual = 0.00306451, Final residual = 1.48515e-05, No Iterations 8
bounding nuTilda, min: -0.00016808 max: 0.400772 average: 0.0679217
ExecutionTime = 4.35 s  ClockTime = 4 s

Time = 49

smoothSolver:  Solving for Ux, Initial residual = 0.00153876, Final residual = 6.38483e-06, No Iterations 8
smoothSolver:  Solving for Uy, Initial residual = 0.00132505, Final residual = 7.79543e-06, No Iterations 8
GAMG:  Solving for p, Initial residual = 0.00102563, Final residual = 5.70387e-06, No Iterations 4
time step continuity errors : sum local = 1.77868e-06, global = 1.32603e-16, cumulative = 4.52115e-16
smoothSolver:  Solving for nuTilda, Initial residual = 0.00297327, Final residual = 1.43996e-05, No Iterations 8
bounding nuTilda, min: -0.000221898 max: 0.400776 average: 0.067318
ExecutionTime = 4.45 s  ClockTime = 5 s

Time = 50

smoothSolver:  Solving for Ux, Initial residual = 0.00150216, Final residual = 6.27818e-06, No Iterations 8
smoothSolver:  Solving for Uy, Initial residual = 0.0012925, Final residual = 7.67258e-06, No Iterations 8
GAMG:  Solving for p, Initial residual = 0.000935946, Final residual = 5.64583e-06, No Iterations 4
time step continuity errors : sum local = 1.75743e-06, global = 1.26273e-16, cumulative = 5.78388e-16
smoothSolver:  Solving for nuTilda, Initial residual = 0.00288555, Final residual = 1.39629e-05, No Iterations 8
bounding nuTilda, min: -0.000169479 max: 0.400778 average: 0.0667252
ExecutionTime = 4.53 s  ClockTime = 5 s

forces wings output:
    sum of forces:
        pressure : (0.131492 3.76546 -6.09204e-20)
        viscous  : (0.412719 -0.0142963 2.13695e-21)
        porous   : (0 0 0)
    sum of moments:
        pressure : (-0.188273 0.0065746 0.100948)
        viscous  : (0.000714815 0.020636 -2.96649e-05)
        porous   : (0 0 0)

Time = 51

smoothSolver:  Solving for Ux, Initial residual = 0.00146829, Final residual = 6.17403e-06, No Iterations 8
smoothSolver:  Solving for Uy, Initial residual = 0.0012703, Final residual = 7.60493e-06, No Iterations 8
GAMG:  Solving for p, Initial residual = 0.000843183, Final residual = 4.96371e-06, No Iterations 4
time step continuity errors : sum local = 1.54469e-06, global = 2.90201e-16, cumulative = 8.68589e-16
smoothSolver:  Solving for nuTilda, Initial residual = 0.00280206, Final residual = 1.3546e-05, No Iterations 8
bounding nuTilda, min: -0.000226331 max: 0.400779 average: 0.0661435
ExecutionTime = 4.62 s  ClockTime = 5 s

Time = 52

smoothSolver:  Solving for Ux, Initial residual = 0.00143938, Final residual = 6.07947e-06, No Iterations 8
smoothSolver:  Solving for Uy, Initial residual = 0.00127469, Final residual = 7.62539e-06, No Iterations 8
GAMG:  Solving for p, Initial residual = 0.000763449, Final residual = 4.64883e-06, No Iterations 4
time step continuity errors : sum local = 1.44883e-06, global = -4.20512e-17, cumulative = 8.26538e-16
smoothSolver:  Solving for nuTilda, Initial residual = 0.00272189, Final residual = 1.31442e-05, No Iterations 8
bounding nuTilda, min: -0.00016881 max: 0.400778 average: 0.0655723
ExecutionTime = 4.7 s  ClockTime = 5 s

Time = 53

smoothSolver:  Solving for Ux, Initial residual = 0.00141332, Final residual = 5.99604e-06, No Iterations 8
smoothSolver:  Solving for Uy, Initial residual = 0.00126507, Final residual = 7.56846e-06, No Iterations 8
GAMG:  Solving for p, Initial residual = 0.000703739, Final residual = 4.65174e-06, No Iterations 4
time step continuity errors : sum local = 1.4503e-06, global = -3.36027e-16, cumulative = 4.90511e-16
smoothSolver:  Solving for nuTilda, Initial residual = 0.00264511, Final residual = 1.27593e-05, No Iterations 8
bounding nuTilda, min: -0.000228834 max: 0.400776 average: 0.0650115
ExecutionTime = 4.78 s  ClockTime = 5 s

Time = 54

smoothSolver:  Solving for Ux, Initial residual = 0.00138853, Final residual = 5.91017e-06, No Iterations 8
smoothSolver:  Solving for Uy, Initial residual = 0.00124714, Final residual = 7.4923e-06, No Iterations 8
GAMG:  Solving for p, Initial residual = 0.000649651, Final residual = 4.24325e-06, No Iterations 4
time step continuity errors : sum local = 1.32137e-06, global = 2.6046e-16, cumulative = 7.50971e-16
smoothSolver:  Solving for nuTilda, Initial residual = 0.00257129, Final residual = 1.23889e-05, No Iterations 8
bounding nuTilda, min: -0.00016649 max: 0.400774 average: 0.0644607
ExecutionTime = 4.87 s  ClockTime = 5 s

Time = 55

smoothSolver:  Solving for Ux, Initial residual = 0.00136498, Final residual = 5.81918e-06, No Iterations 8
smoothSolver:  Solving for Uy, Initial residual = 0.00122949, Final residual = 7.41252e-06, No Iterations 8
GAMG:  Solving for p, Initial residual = 0.000600048, Final residual = 3.68529e-06, No Iterations 4
time step continuity errors : sum local = 1.14917e-06, global = -2.58436e-16, cumulative = 4.92535e-16
smoothSolver:  Solving for nuTilda, Initial residual = 0.00250044, Final residual = 1.20335e-05, No Iterations 8
bounding nuTilda, min: -0.00022971 max: 0.400772 average: 0.0639196
ExecutionTime = 4.95 s  ClockTime = 5 s

forces wings output:
    sum of forces:
        pressure : (0.135062 3.86769 -5.98382e-20)
        viscous  : (0.401578 -0.0138983 2.15659e-21)
        porous   : (0 0 0)
    sum of moments:
        pressure : (-0.193385 0.00675311 0.10161)
        viscous  : (0.000694914 0.0200789 -3.28285e-05)
        porous   : (0 0 0)

Time = 56

smoothSolver:  Solving for Ux, Initial residual = 0.00134327, Final residual = 5.72691e-06, No Iterations 8
smoothSolver:  Solving for Uy, Initial residual = 0.00121297, Final residual = 7.32928e-06, No Iterations 8
GAMG:  Solving for p, Initial residual = 0.000559725, Final residual = 3.96715e-06, No Iterations 4
time step continuity errors : sum local = 1.23713e-06, global = 1.00457e-16, cumulative = 5.92992e-16
smoothSolver:  Solving for nuTilda, Initial residual = 0.00243239, Final residual = 1.16923e-05, No Iterations 8
bounding nuTilda, min: -0.000162885 max: 0.400771 average: 0.0633879
ExecutionTime = 5.03 s  ClockTime = 5 s

Time = 57

smoothSolver:  Solving for Ux, Initial residual = 0.00132305, Final residual = 5.63936e-06, No Iterations 8
smoothSolver:  Solving for Uy, Initial residual = 0.00120337, Final residual = 7.28386e-06, No Iterations 8
GAMG:  Solving for p, Initial residual = 0.000524799, Final residual = 4.80407e-06, No Iterations 4
time step continuity errors : sum local = 1.49758e-06, global = -8.02079e-17, cumulative = 5.12784e-16
smoothSolver:  Solving for nuTilda, Initial residual = 0.00236694, Final residual = 1.13643e-05, No Iterations 8
bounding nuTilda, min: -0.000229315 max: 0.400771 average: 0.0628655
ExecutionTime = 5.12 s  ClockTime = 5 s

Time = 58

smoothSolver:  Solving for Ux, Initial residual = 0.00130453, Final residual = 5.55987e-06, No Iterations 8
smoothSolver:  Solving for Uy, Initial residual = 0.00119838, Final residual = 7.25121e-06, No Iterations 8
GAMG:  Solving for p, Initial residual = 0.000492386, Final residual = 3.24804e-06, No Iterations 5
time step continuity errors : sum local = 1.0111e-06, global = -1.96422e-16, cumulative = 3.16362e-16
smoothSolver:  Solving for nuTilda, Initial residual = 0.00230398, Final residual = 1.10488e-05, No Iterations 8
bounding nuTilda, min: -0.000158284 max: 0.40077 average: 0.062352
ExecutionTime = 5.2 s  ClockTime = 5 s

Time = 59

smoothSolver:  Solving for Ux, Initial residual = 0.00128834, Final residual = 5.49077e-06, No Iterations 8
smoothSolver:  Solving for Uy, Initial residual = 0.00119243, Final residual = 7.2025e-06, No Iterations 8
GAMG:  Solving for p, Initial residual = 0.000468545, Final residual = 3.05412e-06, No Iterations 5
time step continuity errors : sum local = 9.51627e-07, global = 8.41826e-19, cumulative = 3.17204e-16
smoothSolver:  Solving for nuTilda, Initial residual = 0.00224339, Final residual = 1.07453e-05, No Iterations 8
bounding nuTilda, min: -0.00022792 max: 0.40077 average: 0.0618472
ExecutionTime = 5.29 s  ClockTime = 5 s

Time = 60

smoothSolver:  Solving for Ux, Initial residual = 0.00127256, Final residual = 5.42148e-06, No Iterations 8
smoothSolver:  Solving for Uy, Initial residual = 0.00118328, Final residual = 7.14382e-06, No Iterations 8
GAMG:  Solving for p, Initial residual = 0.000449132, Final residual = 4.32443e-06, No Iterations 4
time step continuity errors : sum local = 1.34789e-06, global = 1.68442e-16, cumulative = 4.85646e-16
smoothSolver:  Solving for nuTilda, Initial residual = 0.00218507, Final residual = 1.04531e-05, No Iterations 8
bounding nuTilda, min: -0.000152928 max: 0.40077 average: 0.0613508
ExecutionTime = 5.37 s  ClockTime = 5 s

forces wings output:
    sum of forces:
        pressure : (0.138848 3.97612 -5.89283e-20)
        viscous  : (0.390981 -0.013512 2.1754e-21)
        porous   : (0 0 0)
    sum of moments:
        pressure : (-0.198806 0.00694242 0.110826)
        viscous  : (0.0006756 0.019549 -3.69856e-05)
        porous   : (0 0 0)

Time = 61

smoothSolver:  Solving for Ux, Initial residual = 0.00125639, Final residual = 5.34669e-06, No Iterations 8
smoothSolver:  Solving for Uy, Initial residual = 0.0011732, Final residual = 7.08127e-06, No Iterations 8
GAMG:  Solving for p, Initial residual = 0.000429576, Final residual = 2.5186e-06, No Iterations 5
time step continuity errors : sum local = 7.84484e-07, global = -1.28103e-16, cumulative = 3.57543e-16
smoothSolver:  Solving for nuTilda, Initial residual = 0.00212893, Final residual = 1.01717e-05, No Iterations 8
bounding nuTilda, min: -0.000225743 max: 0.40077 average: 0.0608627
ExecutionTime = 5.47 s  ClockTime = 6 s

Time = 62

smoothSolver:  Solving for Ux, Initial residual = 0.00124086, Final residual = 5.27249e-06, No Iterations 8
smoothSolver:  Solving for Uy, Initial residual = 0.00116361, Final residual = 7.01694e-06, No Iterations 8
GAMG:  Solving for p, Initial residual = 0.000408852, Final residual = 2.4475e-06, No Iterations 5
time step continuity errors : sum local = 7.62363e-07, global = 1.24157e-16, cumulative = 4.817e-16
smoothSolver:  Solving for nuTilda, Initial residual = 0.00207484, Final residual = 9.90058e-06, No Iterations 8
bounding nuTilda, min: -0.00014705 max: 0.40077 average: 0.0603827
ExecutionTime = 5.55 s  ClockTime = 6 s

Time = 63

smoothSolver:  Solving for Ux, Initial residual = 0.00122595, Final residual = 5.19977e-06, No Iterations 8
smoothSolver:  Solving for Uy, Initial residual = 0.00115622, Final residual = 6.95796e-06, No Iterations 8
GAMG:  Solving for p, Initial residual = 0.00039375, Final residual = 2.54241e-06, No Iterations 5
time step continuity errors : sum local = 7.92094e-07, global = -1.76306e-16, cumulative = 3.05394e-16
smoothSolver:  Solving for nuTilda, Initial residual = 0.00202266, Final residual = 9.63892e-06, No Iterations 8
bounding nuTilda, min: -0.000222955 max: 0.400771 average: 0.0599104
ExecutionTime = 5.64 s  ClockTime = 6 s

Time = 64

smoothSolver:  Solving for Ux, Initial residual = 0.00121196, Final residual = 5.12978e-06, No Iterations 8
smoothSolver:  Solving for Uy, Initial residual = 0.00114977, Final residual = 6.90269e-06, No Iterations 8
GAMG:  Solving for p, Initial residual = 0.000382274, Final residual = 2.66143e-06, No Iterations 5
time step continuity errors : sum local = 8.29161e-07, global = -6.30305e-17, cumulative = 2.42364e-16
smoothSolver:  Solving for nuTilda, Initial residual = 0.00197228, Final residual = 9.38617e-06, No Iterations 8
bounding nuTilda, min: -0.000140817 max: 0.400771 average: 0.0594459
ExecutionTime = 5.72 s  ClockTime = 6 s

Time = 65

smoothSolver:  Solving for Ux, Initial residual = 0.00119882, Final residual = 5.06344e-06, No Iterations 8
smoothSolver:  Solving for Uy, Initial residual = 0.00114386, Final residual = 6.84629e-06, No Iterations 8
GAMG:  Solving for p, Initial residual = 0.000371309, Final residual = 2.7398e-06, No Iterations 5
time step continuity errors : sum local = 8.53321e-07, global = -1.12457e-17, cumulative = 2.31118e-16
smoothSolver:  Solving for nuTilda, Initial residual = 0.00192364, Final residual = 9.14181e-06, No Iterations 8
bounding nuTilda, min: -0.000219763 max: 0.400771 average: 0.0589888
ExecutionTime = 5.8 s  ClockTime = 6 s

forces wings output:
    sum of forces:
        pressure : (0.142465 4.07969 -5.76347e-20)
        viscous  : (0.380864 -0.0131439 2.17387e-21)
        porous   : (0 0 0)
    sum of moments:
        pressure : (-0.203984 0.00712326 0.119301)
        viscous  : (0.000657197 0.0190432 -4.05015e-05)
        porous   : (0 0 0)

Time = 66

smoothSolver:  Solving for Ux, Initial residual = 0.00118606, Final residual = 4.99953e-06, No Iterations 8
smoothSolver:  Solving for Uy, Initial residual = 0.00113679, Final residual = 6.7863e-06, No Iterations 8
GAMG:  Solving for p, Initial residual = 0.000361455, Final residual = 2.74159e-06, No Iterations 5
time step continuity errors : sum local = 8.53892e-07, global = -3.14048e-16, cumulative = -8.29301e-17
smoothSolver:  Solving for nuTilda, Initial residual = 0.00187666, Final residual = 8.90541e-06, No Iterations 8
bounding nuTilda, min: -0.000134371 max: 0.400771 average: 0.0585389
ExecutionTime = 5.89 s  ClockTime = 6 s

Time = 67

smoothSolver:  Solving for Ux, Initial residual = 0.00117349, Final residual = 4.93737e-06, No Iterations 8
smoothSolver:  Solving for Uy, Initial residual = 0.00112867, Final residual = 6.72266e-06, No Iterations 8
GAMG:  Solving for p, Initial residual = 0.000353784, Final residual = 2.71091e-06, No Iterations 5
time step continuity errors : sum local = 8.44278e-07, global = 4.715e-17, cumulative = -3.57801e-17
smoothSolver:  Solving for nuTilda, Initial residual = 0.00183128, Final residual = 8.67678e-06, No Iterations 8
bounding nuTilda, min: -0.000216278 max: 0.400771 average: 0.0580962
ExecutionTime = 5.98 s  ClockTime = 6 s

Time = 68

smoothSolver:  Solving for Ux, Initial residual = 0.00116129, Final residual = 4.87608e-06, No Iterations 8
smoothSolver:  Solving for Uy, Initial residual = 0.00111987, Final residual = 6.65741e-06, No Iterations 8
GAMG:  Solving for p, Initial residual = 0.000345782, Final residual = 2.68564e-06, No Iterations 5
time step continuity errors : sum local = 8.36342e-07, global = -2.846e-16, cumulative = -3.2038e-16
smoothSolver:  Solving for nuTilda, Initial residual = 0.00178739, Final residual = 8.4555e-06, No Iterations 8
bounding nuTilda, min: -0.000127853 max: 0.400771 average: 0.0576604
ExecutionTime = 6.07 s  ClockTime = 6 s

Time = 69

smoothSolver:  Solving for Ux, Initial residual = 0.00114967, Final residual = 4.81632e-06, No Iterations 8
smoothSolver:  Solving for Uy, Initial residual = 0.00111175, Final residual = 6.59168e-06, No Iterations 8
GAMG:  Solving for p, Initial residual = 0.000338688, Final residual = 2.71578e-06, No Iterations 5
time step continuity errors : sum local = 8.45577e-07, global = 2.98276e-16, cumulative = -2.21046e-17
smoothSolver:  Solving for nuTilda, Initial residual = 0.00174493, Final residual = 8.24123e-06, No Iterations 8
bounding nuTilda, min: -0.000212617 max: 0.400771 average: 0.0572313
ExecutionTime = 6.15 s  ClockTime = 6 s

Time = 70

smoothSolver:  Solving for Ux, Initial residual = 0.0011385, Final residual = 4.75778e-06, No Iterations 8
smoothSolver:  Solving for Uy, Initial residual = 0.00110365, Final residual = 6.52638e-06, No Iterations 8
GAMG:  Solving for p, Initial residual = 0.000332013, Final residual = 2.79231e-06, No Iterations 5
time step continuity errors : sum local = 8.69422e-07, global = 3.46126e-17, cumulative = 1.2508e-17
smoothSolver:  Solving for nuTilda, Initial residual = 0.00170383, Final residual = 8.03377e-06, No Iterations 8
bounding nuTilda, min: -0.000121359 max: 0.400771 average: 0.0568089
ExecutionTime = 6.24 s  ClockTime = 6 s

forces wings output:
    sum of forces:
        pressure : (0.146209 4.18691 -5.64937e-20)
        viscous  : (0.371206 -0.0127876 2.17381e-21)
        porous   : (0 0 0)
    sum of moments:
        pressure : (-0.209345 0.00731046 0.124564)
        viscous  : (0.000639378 0.0185603 -4.51692e-05)
        porous   : (0 0 0)

Time = 71

smoothSolver:  Solving for Ux, Initial residual = 0.00112756, Final residual = 4.70083e-06, No Iterations 8
smoothSolver:  Solving for Uy, Initial residual = 0.00109591, Final residual = 6.46129e-06, No Iterations 8
GAMG:  Solving for p, Initial residual = 0.000327039, Final residual = 2.87976e-06, No Iterations 5
time step continuity errors : sum local = 8.96603e-07, global = 2.95107e-17, cumulative = 4.20187e-17
smoothSolver:  Solving for nuTilda, Initial residual = 0.00166404, Final residual = 7.83285e-06, No Iterations 8
bounding nuTilda, min: -0.000208906 max: 0.400771 average: 0.056393
ExecutionTime = 6.33 s  ClockTime = 6 s

Time = 72

smoothSolver:  Solving for Ux, Initial residual = 0.00111682, Final residual = 4.64482e-06, No Iterations 8
smoothSolver:  Solving for Uy, Initial residual = 0.00108785, Final residual = 6.39609e-06, No Iterations 8
GAMG:  Solving for p, Initial residual = 0.000322521, Final residual = 2.91584e-06, No Iterations 5
time step continuity errors : sum local = 9.07953e-07, global = -7.70298e-17, cumulative = -3.50111e-17
smoothSolver:  Solving for nuTilda, Initial residual = 0.00162548, Final residual = 7.63825e-06, No Iterations 8
bounding nuTilda, min: -0.000114955 max: 0.400771 average: 0.0559833
ExecutionTime = 6.42 s  ClockTime = 7 s

Time = 73

smoothSolver:  Solving for Ux, Initial residual = 0.00110624, Final residual = 4.59006e-06, No Iterations 8
smoothSolver:  Solving for Uy, Initial residual = 0.00107992, Final residual = 6.32935e-06, No Iterations 8
GAMG:  Solving for p, Initial residual = 0.000317878, Final residual = 2.90603e-06, No Iterations 5
time step continuity errors : sum local = 9.04938e-07, global = 7.76453e-17, cumulative = 4.26342e-17
smoothSolver:  Solving for nuTilda, Initial residual = 0.0015881, Final residual = 7.44976e-06, No Iterations 8
bounding nuTilda, min: -0.000205239 max: 0.400771 average: 0.0555799
ExecutionTime = 6.51 s  ClockTime = 7 s

Time = 74

smoothSolver:  Solving for Ux, Initial residual = 0.00109588, Final residual = 4.53608e-06, No Iterations 8
smoothSolver:  Solving for Uy, Initial residual = 0.00107137, Final residual = 6.26024e-06, No Iterations 8
GAMG:  Solving for p, Initial residual = 0.000313616, Final residual = 2.86924e-06, No Iterations 5
time step continuity errors : sum local = 8.93579e-07, global = 9.99118e-17, cumulative = 1.42546e-16
smoothSolver:  Solving for nuTilda, Initial residual = 0.00155185, Final residual = 7.26713e-06, No Iterations 8
bounding nuTilda, min: -0.000108713 max: 0.40077 average: 0.0551825
ExecutionTime = 6.6 s  ClockTime = 7 s

Time = 75

smoothSolver:  Solving for Ux, Initial residual = 0.00108574, Final residual = 4.48345e-06, No Iterations 8
smoothSolver:  Solving for Uy, Initial residual = 0.00106285, Final residual = 6.18837e-06, No Iterations 8
GAMG:  Solving for p, Initial residual = 0.000309415, Final residual = 2.85659e-06, No Iterations 5
time step continuity errors : sum local = 8.89532e-07, global = 2.27535e-16, cumulative = 3.70081e-16
smoothSolver:  Solving for nuTilda, Initial residual = 0.00151668, Final residual = 7.09011e-06, No Iterations 8
bounding nuTilda, min: -0.000201734 max: 0.40077 average: 0.054791
ExecutionTime = 6.68 s  ClockTime = 7 s

forces wings output:
    sum of forces:
        pressure : (0.150193 4.30098 -5.54275e-20)
        viscous  : (0.361981 -0.0124482 2.17046e-21)
        porous   : (0 0 0)
    sum of moments:
        pressure : (-0.215049 0.00750964 0.130923)
        viscous  : (0.000622408 0.0180991 -4.94669e-05)
        porous   : (0 0 0)

Time = 76

smoothSolver:  Solving for Ux, Initial residual = 0.00107585, Final residual = 4.43156e-06, No Iterations 8
smoothSolver:  Solving for Uy, Initial residual = 0.00105371, Final residual = 6.11503e-06, No Iterations 8
GAMG:  Solving for p, Initial residual = 0.000305535, Final residual = 2.86716e-06, No Iterations 5
time step continuity errors : sum local = 8.92836e-07, global = 2.06674e-16, cumulative = 5.76755e-16
smoothSolver:  Solving for nuTilda, Initial residual = 0.00148254, Final residual = 6.91848e-06, No Iterations 8
bounding nuTilda, min: -0.000102681 max: 0.40077 average: 0.0544053
ExecutionTime = 6.78 s  ClockTime = 7 s

Time = 77

smoothSolver:  Solving for Ux, Initial residual = 0.00106619, Final residual = 4.38084e-06, No Iterations 8
smoothSolver:  Solving for Uy, Initial residual = 0.00104478, Final residual = 6.04136e-06, No Iterations 8
GAMG:  Solving for p, Initial residual = 0.000301908, Final residual = 2.91766e-06, No Iterations 5
time step continuity errors : sum local = 9.08494e-07, global = -2.17085e-16, cumulative = 3.5967e-16
smoothSolver:  Solving for nuTilda, Initial residual = 0.00144941, Final residual = 6.75203e-06, No Iterations 8
bounding nuTilda, min: -0.00019843 max: 0.40077 average: 0.0540252
ExecutionTime = 6.86 s  ClockTime = 7 s

Time = 78

smoothSolver:  Solving for Ux, Initial residual = 0.00105676, Final residual = 4.3307e-06, No Iterations 8
smoothSolver:  Solving for Uy, Initial residual = 0.00103556, Final residual = 5.96832e-06, No Iterations 8
GAMG:  Solving for p, Initial residual = 0.000298487, Final residual = 2.96094e-06, No Iterations 5
time step continuity errors : sum local = 9.22083e-07, global = 2.88505e-16, cumulative = 6.48175e-16
smoothSolver:  Solving for nuTilda, Initial residual = 0.00141724, Final residual = 6.59052e-06, No Iterations 8
bounding nuTilda, min: -9.68833e-05 max: 0.40077 average: 0.0536507
ExecutionTime = 6.95 s  ClockTime = 7 s

Time = 79

smoothSolver:  Solving for Ux, Initial residual = 0.00104755, Final residual = 4.28195e-06, No Iterations 8
smoothSolver:  Solving for Uy, Initial residual = 0.00102667, Final residual = 5.89527e-06, No Iterations 8
GAMG:  Solving for p, Initial residual = 0.000295144, Final residual = 1.98765e-06, No Iterations 6
time step continuity errors : sum local = 6.21691e-07, global = 3.69084e-16, cumulative = 1.01726e-15
smoothSolver:  Solving for nuTilda, Initial residual = 0.00138598, Final residual = 6.43381e-06, No Iterations 8
bounding nuTilda, min: -0.000195356 max: 0.400769 average: 0.0532816
ExecutionTime = 7.04 s  ClockTime = 7 s

Time = 80

smoothSolver:  Solving for Ux, Initial residual = 0.00103877, Final residual = 4.2356e-06, No Iterations 8
smoothSolver:  Solving for Uy, Initial residual = 0.00101707, Final residual = 5.82118e-06, No Iterations 8
GAMG:  Solving for p, Initial residual = 0.000291894, Final residual = 1.98839e-06, No Iterations 6
time step continuity errors : sum local = 6.21903e-07, global = 1.59116e-16, cumulative = 1.17637e-15
smoothSolver:  Solving for nuTilda, Initial residual = 0.00135561, Final residual = 6.28167e-06, No Iterations 8
bounding nuTilda, min: -9.13454e-05 max: 0.400769 average: 0.0529178
ExecutionTime = 7.13 s  ClockTime = 7 s

forces wings output:
    sum of forces:
        pressure : (0.154328 4.41941 -5.46211e-20)
        viscous  : (0.353163 -0.0121198 2.17483e-21)
        porous   : (0 0 0)
    sum of moments:
        pressure : (-0.220971 0.00771642 0.137446)
        viscous  : (0.00060599 0.0176582 -5.45793e-05)
        porous   : (0 0 0)

Time = 81

smoothSolver:  Solving for Ux, Initial residual = 0.00102991, Final residual = 4.18877e-06, No Iterations 8
smoothSolver:  Solving for Uy, Initial residual = 0.0010078, Final residual = 5.74586e-06, No Iterations 8
GAMG:  Solving for p, Initial residual = 0.000288692, Final residual = 1.95561e-06, No Iterations 6
time step continuity errors : sum local = 6.11617e-07, global = -2.09517e-16, cumulative = 9.66857e-16
smoothSolver:  Solving for nuTilda, Initial residual = 0.0013261, Final residual = 6.13393e-06, No Iterations 8
bounding nuTilda, min: -0.000192556 max: 0.400769 average: 0.0525593
ExecutionTime = 7.23 s  ClockTime = 7 s

Time = 82

smoothSolver:  Solving for Ux, Initial residual = 0.00102109, Final residual = 4.14162e-06, No Iterations 8
smoothSolver:  Solving for Uy, Initial residual = 0.000997953, Final residual = 5.66928e-06, No Iterations 8
GAMG:  Solving for p, Initial residual = 0.000285512, Final residual = 1.9802e-06, No Iterations 6
time step continuity errors : sum local = 6.19363e-07, global = -5.58313e-17, cumulative = 9.11026e-16
smoothSolver:  Solving for nuTilda, Initial residual = 0.00129742, Final residual = 5.99046e-06, No Iterations 8
bounding nuTilda, min: -8.60525e-05 max: 0.400769 average: 0.0522058
ExecutionTime = 7.31 s  ClockTime = 7 s

Time = 83

smoothSolver:  Solving for Ux, Initial residual = 0.00101254, Final residual = 4.09592e-06, No Iterations 8
smoothSolver:  Solving for Uy, Initial residual = 0.000988155, Final residual = 5.59152e-06, No Iterations 8
GAMG:  Solving for p, Initial residual = 0.000282698, Final residual = 2.05077e-06, No Iterations 6
time step continuity errors : sum local = 6.41501e-07, global = 2.89582e-19, cumulative = 9.11316e-16
smoothSolver:  Solving for nuTilda, Initial residual = 0.00126953, Final residual = 5.85103e-06, No Iterations 8
bounding nuTilda, min: -0.000190063 max: 0.400768 average: 0.0518574
ExecutionTime = 7.41 s  ClockTime = 8 s

Time = 84

smoothSolver:  Solving for Ux, Initial residual = 0.00100428, Final residual = 4.05156e-06, No Iterations 8
smoothSolver:  Solving for Uy, Initial residual = 0.000977859, Final residual = 5.51365e-06, No Iterations 8
GAMG:  Solving for p, Initial residual = 0.000279907, Final residual = 2.10975e-06, No Iterations 6
time step continuity errors : sum local = 6.60104e-07, global = 1.69505e-16, cumulative = 1.08082e-15
smoothSolver:  Solving for nuTilda, Initial residual = 0.00124241, Final residual = 5.71552e-06, No Iterations 8
bounding nuTilda, min: -8.10345e-05 max: 0.400768 average: 0.0515138
ExecutionTime = 7.5 s  ClockTime = 8 s

Time = 85

smoothSolver:  Solving for Ux, Initial residual = 0.000996267, Final residual = 4.00872e-06, No Iterations 8
smoothSolver:  Solving for Uy, Initial residual = 0.000967894, Final residual = 5.43573e-06, No Iterations 8
GAMG:  Solving for p, Initial residual = 0.000277413, Final residual = 2.13214e-06, No Iterations 6
time step continuity errors : sum local = 6.67194e-07, global = -5.02096e-17, cumulative = 1.03061e-15
smoothSolver:  Solving for nuTilda, Initial residual = 0.00121603, Final residual = 5.58373e-06, No Iterations 8
bounding nuTilda, min: -0.0001879 max: 0.400768 average: 0.0511751
ExecutionTime = 7.59 s  ClockTime = 8 s

forces wings output:
    sum of forces:
        pressure : (0.158394 4.53585 -5.38514e-20)
        viscous  : (0.344797 -0.0118099 2.17534e-21)
        porous   : (0 0 0)
    sum of moments:
        pressure : (-0.226793 0.00791972 0.142349)
        viscous  : (0.000590493 0.0172398 -5.90629e-05)
        porous   : (0 0 0)

Time = 86

smoothSolver:  Solving for Ux, Initial residual = 0.000988326, Final residual = 3.96601e-06, No Iterations 8
smoothSolver:  Solving for Uy, Initial residual = 0.00095761, Final residual = 5.35797e-06, No Iterations 8
GAMG:  Solving for p, Initial residual = 0.00027465, Final residual = 2.11122e-06, No Iterations 6
time step continuity errors : sum local = 6.60727e-07, global = 3.15233e-16, cumulative = 1.34584e-15
smoothSolver:  Solving for nuTilda, Initial residual = 0.00119036, Final residual = 5.45552e-06, No Iterations 8
bounding nuTilda, min: -7.62658e-05 max: 0.400767 average: 0.0508411
ExecutionTime = 7.68 s  ClockTime = 8 s

Time = 87

smoothSolver:  Solving for Ux, Initial residual = 0.000980438, Final residual = 3.92366e-06, No Iterations 8
smoothSolver:  Solving for Uy, Initial residual = 0.000947564, Final residual = 5.27954e-06, No Iterations 8
GAMG:  Solving for p, Initial residual = 0.000272228, Final residual = 2.08194e-06, No Iterations 6
time step continuity errors : sum local = 6.51553e-07, global = -5.17464e-17, cumulative = 1.2941e-15
smoothSolver:  Solving for nuTilda, Initial residual = 0.00116537, Final residual = 5.33076e-06, No Iterations 8
bounding nuTilda, min: -0.000186097 max: 0.400767 average: 0.0505117
ExecutionTime = 7.76 s  ClockTime = 8 s

Time = 88

smoothSolver:  Solving for Ux, Initial residual = 0.000972632, Final residual = 3.88143e-06, No Iterations 8
smoothSolver:  Solving for Uy, Initial residual = 0.000937023, Final residual = 5.20056e-06, No Iterations 8
GAMG:  Solving for p, Initial residual = 0.000269653, Final residual = 2.06603e-06, No Iterations 6
time step continuity errors : sum local = 6.46621e-07, global = 2.86686e-17, cumulative = 1.32277e-15
smoothSolver:  Solving for nuTilda, Initial residual = 0.00114105, Final residual = 5.20934e-06, No Iterations 8
bounding nuTilda, min: -7.17209e-05 max: 0.400767 average: 0.0501869
ExecutionTime = 7.85 s  ClockTime = 8 s

Time = 89

smoothSolver:  Solving for Ux, Initial residual = 0.000965019, Final residual = 3.84008e-06, No Iterations 8
smoothSolver:  Solving for Uy, Initial residual = 0.000926597, Final residual = 5.12093e-06, No Iterations 8
GAMG:  Solving for p, Initial residual = 0.000267564, Final residual = 2.0767e-06, No Iterations 6
time step continuity errors : sum local = 6.49991e-07, global = 3.71358e-17, cumulative = 1.3599e-15
smoothSolver:  Solving for nuTilda, Initial residual = 0.00111737, Final residual = 5.09118e-06, No Iterations 8
bounding nuTilda, min: -0.000184662 max: 0.400767 average: 0.0498665
ExecutionTime = 7.94 s  ClockTime = 8 s

Time = 90

smoothSolver:  Solving for Ux, Initial residual = 0.000957601, Final residual = 3.79937e-06, No Iterations 8
smoothSolver:  Solving for Uy, Initial residual = 0.000915727, Final residual = 5.04137e-06, No Iterations 8
GAMG:  Solving for p, Initial residual = 0.000265225, Final residual = 2.09318e-06, No Iterations 6
time step continuity errors : sum local = 6.55263e-07, global = -3.55742e-17, cumulative = 1.32433e-15
smoothSolver:  Solving for nuTilda, Initial residual = 0.00109431, Final residual = 4.97617e-06, No Iterations 8
bounding nuTilda, min: -6.73803e-05 max: 0.400766 average: 0.0495505
ExecutionTime = 8.04 s  ClockTime = 8 s

forces wings output:
    sum of forces:
        pressure : (0.16252 4.65399 -5.3184e-20)
        viscous  : (0.337235 -0.0115265 2.1744e-21)
        porous   : (0 0 0)
    sum of moments:
        pressure : (-0.2327 0.008126 0.146702)
        viscous  : (0.000576326 0.0168617 -6.39794e-05)
        porous   : (0 0 0)

Time = 91

smoothSolver:  Solving for Ux, Initial residual = 0.000950353, Final residual = 3.75971e-06, No Iterations 8
smoothSolver:  Solving for Uy, Initial residual = 0.00090508, Final residual = 4.96175e-06, No Iterations 8
GAMG:  Solving for p, Initial residual = 0.000263362, Final residual = 2.10586e-06, No Iterations 6
time step continuity errors : sum local = 6.59294e-07, global = 3.17979e-19, cumulative = 1.32465e-15
smoothSolver:  Solving for nuTilda, Initial residual = 0.00107183, Final residual = 4.86422e-06, No Iterations 8
bounding nuTilda, min: -0.000183593 max: 0.400766 average: 0.0492388
ExecutionTime = 8.13 s  ClockTime = 8 s

Time = 92

smoothSolver:  Solving for Ux, Initial residual = 0.000943209, Final residual = 3.72051e-06, No Iterations 8
smoothSolver:  Solving for Uy, Initial residual = 0.000894103, Final residual = 4.88252e-06, No Iterations 8
GAMG:  Solving for p, Initial residual = 0.000261107, Final residual = 2.09669e-06, No Iterations 6
time step continuity errors : sum local = 6.56525e-07, global = 2.26668e-17, cumulative = 1.34731e-15
smoothSolver:  Solving for nuTilda, Initial residual = 0.00104992, Final residual = 4.7552e-06, No Iterations 8
bounding nuTilda, min: -6.32166e-05 max: 0.400766 average: 0.0489314
ExecutionTime = 8.22 s  ClockTime = 8 s

Time = 93

smoothSolver:  Solving for Ux, Initial residual = 0.000936122, Final residual = 3.68197e-06, No Iterations 8
smoothSolver:  Solving for Uy, Initial residual = 0.000883381, Final residual = 4.80319e-06, No Iterations 8
GAMG:  Solving for p, Initial residual = 0.000259435, Final residual = 2.07952e-06, No Iterations 6
time step continuity errors : sum local = 6.51183e-07, global = -8.57809e-17, cumulative = 1.26153e-15
smoothSolver:  Solving for nuTilda, Initial residual = 0.00102856, Final residual = 4.64902e-06, No Iterations 8
bounding nuTilda, min: -0.000182885 max: 0.400765 average: 0.048628
ExecutionTime = 8.32 s  ClockTime = 8 s

Time = 94

smoothSolver:  Solving for Ux, Initial residual = 0.000929095, Final residual = 3.64358e-06, No Iterations 8
smoothSolver:  Solving for Uy, Initial residual = 0.000872302, Final residual = 4.72401e-06, No Iterations 8
GAMG:  Solving for p, Initial residual = 0.000257298, Final residual = 2.05438e-06, No Iterations 6
time step continuity errors : sum local = 6.43393e-07, global = 2.34944e-16, cumulative = 1.49648e-15
smoothSolver:  Solving for nuTilda, Initial residual = 0.00100772, Final residual = 4.54557e-06, No Iterations 8
bounding nuTilda, min: -5.92005e-05 max: 0.400765 average: 0.0483287
ExecutionTime = 8.41 s  ClockTime = 9 s

Time = 95

smoothSolver:  Solving for Ux, Initial residual = 0.000922155, Final residual = 3.60584e-06, No Iterations 8
smoothSolver:  Solving for Uy, Initial residual = 0.000861382, Final residual = 4.64453e-06, No Iterations 8
GAMG:  Solving for p, Initial residual = 0.000255567, Final residual = 2.03999e-06, No Iterations 6
time step continuity errors : sum local = 6.38922e-07, global = 1.00601e-18, cumulative = 1.49748e-15
smoothSolver:  Solving for nuTilda, Initial residual = 0.000987391, Final residual = 4.44475e-06, No Iterations 8
bounding nuTilda, min: -0.000182529 max: 0.400765 average: 0.0480335
ExecutionTime = 8.49 s  ClockTime = 9 s

forces wings output:
    sum of forces:
        pressure : (0.166639 4.77196 -5.26722e-20)
        viscous  : (0.330599 -0.0112792 2.17192e-21)
        porous   : (0 0 0)
    sum of moments:
        pressure : (-0.238598 0.00833197 0.150889)
        viscous  : (0.00056396 0.01653 -6.80283e-05)
        porous   : (0 0 0)

Time = 96

smoothSolver:  Solving for Ux, Initial residual = 0.000915273, Final residual = 3.56834e-06, No Iterations 8
smoothSolver:  Solving for Uy, Initial residual = 0.000850127, Final residual = 4.5653e-06, No Iterations 8
GAMG:  Solving for p, Initial residual = 0.000253392, Final residual = 2.02594e-06, No Iterations 6
time step continuity errors : sum local = 6.34624e-07, global = -4.13462e-17, cumulative = 1.45614e-15
smoothSolver:  Solving for nuTilda, Initial residual = 0.000967547, Final residual = 4.34646e-06, No Iterations 8
bounding nuTilda, min: -5.53131e-05 max: 0.400764 average: 0.0477421
ExecutionTime = 8.59 s  ClockTime = 9 s

Time = 97

smoothSolver:  Solving for Ux, Initial residual = 0.000908479, Final residual = 3.53158e-06, No Iterations 8
smoothSolver:  Solving for Uy, Initial residual = 0.000839065, Final residual = 4.48614e-06, No Iterations 8
GAMG:  Solving for p, Initial residual = 0.000251649, Final residual = 2.01925e-06, No Iterations 6
time step continuity errors : sum local = 6.32579e-07, global = -3.19939e-16, cumulative = 1.1362e-15
smoothSolver:  Solving for nuTilda, Initial residual = 0.000948179, Final residual = 4.25064e-06, No Iterations 8
bounding nuTilda, min: -0.00018251 max: 0.400764 average: 0.0474546
ExecutionTime = 8.68 s  ClockTime = 9 s

Time = 98

smoothSolver:  Solving for Ux, Initial residual = 0.000901725, Final residual = 3.49499e-06, No Iterations 8
smoothSolver:  Solving for Uy, Initial residual = 0.000827734, Final residual = 4.40758e-06, No Iterations 8
GAMG:  Solving for p, Initial residual = 0.000249546, Final residual = 2.00224e-06, No Iterations 6
time step continuity errors : sum local = 6.27355e-07, global = -1.3796e-16, cumulative = 9.98236e-16
smoothSolver:  Solving for nuTilda, Initial residual = 0.000929279, Final residual = 4.15724e-06, No Iterations 8
bounding nuTilda, min: -5.15667e-05 max: 0.400764 average: 0.0471709
ExecutionTime = 8.76 s  ClockTime = 9 s

Time = 99

smoothSolver:  Solving for Ux, Initial residual = 0.000895017, Final residual = 3.45893e-06, No Iterations 8
smoothSolver:  Solving for Uy, Initial residual = 0.000816588, Final residual = 4.32924e-06, No Iterations 8
GAMG:  Solving for p, Initial residual = 0.000247843, Final residual = 1.98609e-06, No Iterations 6
time step continuity errors : sum local = 6.2234e-07, global = 1.05567e-17, cumulative = 1.00879e-15
smoothSolver:  Solving for nuTilda, Initial residual = 0.000910828, Final residual = 4.06617e-06, No Iterations 8
bounding nuTilda, min: -0.000182807 max: 0.400764 average: 0.046891
ExecutionTime = 8.85 s  ClockTime = 9 s

Time = 100

smoothSolver:  Solving for Ux, Initial residual = 0.000888332, Final residual = 3.42292e-06, No Iterations 8
smoothSolver:  Solving for Uy, Initial residual = 0.000805186, Final residual = 4.25147e-06, No Iterations 8
GAMG:  Solving for p, Initial residual = 0.000245736, Final residual = 1.95846e-06, No Iterations 6
time step continuity errors : sum local = 6.13774e-07, global = 1.41583e-17, cumulative = 1.02295e-15
smoothSolver:  Solving for nuTilda, Initial residual = 0.000892819, Final residual = 3.97736e-06, No Iterations 8
bounding nuTilda, min: -4.80464e-05 max: 0.400763 average: 0.0466147
ExecutionTime = 8.94 s  ClockTime = 9 s

forces wings output:
    sum of forces:
        pressure : (0.17064 4.88652 -5.23168e-20)
        viscous  : (0.32449 -0.01105 2.17449e-21)
        porous   : (0 0 0)
    sum of moments:
        pressure : (-0.244326 0.008532 0.154441)
        viscous  : (0.000552502 0.0162245 -7.21715e-05)
        porous   : (0 0 0)

Time = 101

smoothSolver:  Solving for Ux, Initial residual = 0.000881708, Final residual = 3.38745e-06, No Iterations 8
smoothSolver:  Solving for Uy, Initial residual = 0.000793925, Final residual = 4.17387e-06, No Iterations 8
GAMG:  Solving for p, Initial residual = 0.000243943, Final residual = 1.93669e-06, No Iterations 6
time step continuity errors : sum local = 6.06991e-07, global = -1.7822e-17, cumulative = 1.00513e-15
smoothSolver:  Solving for nuTilda, Initial residual = 0.000875233, Final residual = 3.89077e-06, No Iterations 8
bounding nuTilda, min: -0.000183395 max: 0.400763 average: 0.046342
ExecutionTime = 9.04 s  ClockTime = 9 s

Time = 102

smoothSolver:  Solving for Ux, Initial residual = 0.000875115, Final residual = 3.35204e-06, No Iterations 8
smoothSolver:  Solving for Uy, Initial residual = 0.000782433, Final residual = 4.09692e-06, No Iterations 8
GAMG:  Solving for p, Initial residual = 0.000241819, Final residual = 1.90784e-06, No Iterations 6
time step continuity errors : sum local = 5.98047e-07, global = -1.05977e-16, cumulative = 8.99153e-16
smoothSolver:  Solving for nuTilda, Initial residual = 0.000858062, Final residual = 3.80633e-06, No Iterations 8
bounding nuTilda, min: -4.48951e-05 max: 0.400763 average: 0.0460728
ExecutionTime = 9.13 s  ClockTime = 9 s

Time = 103

smoothSolver:  Solving for Ux, Initial residual = 0.000868582, Final residual = 3.31711e-06, No Iterations 8
smoothSolver:  Solving for Uy, Initial residual = 0.000771103, Final residual = 4.0203e-06, No Iterations 8
GAMG:  Solving for p, Initial residual = 0.000240043, Final residual = 1.88712e-06, No Iterations 6
time step continuity errors : sum local = 5.916e-07, global = 8.78716e-17, cumulative = 9.87024e-16
smoothSolver:  Solving for nuTilda, Initial residual = 0.000841295, Final residual = 3.72402e-06, No Iterations 8
bounding nuTilda, min: -0.000184257 max: 0.400762 average: 0.0458072
ExecutionTime = 9.22 s  ClockTime = 9 s

Time = 104

smoothSolver:  Solving for Ux, Initial residual = 0.000862082, Final residual = 3.28226e-06, No Iterations 8
smoothSolver:  Solving for Uy, Initial residual = 0.000759598, Final residual = 3.9445e-06, No Iterations 8
GAMG:  Solving for p, Initial residual = 0.000237848, Final residual = 1.85757e-06, No Iterations 6
time step continuity errors : sum local = 5.82441e-07, global = -1.62599e-16, cumulative = 8.24425e-16
smoothSolver:  Solving for nuTilda, Initial residual = 0.000824925, Final residual = 3.64377e-06, No Iterations 8
bounding nuTilda, min: -4.21129e-05 max: 0.400762 average: 0.045545
ExecutionTime = 9.31 s  ClockTime = 9 s

Time = 105

smoothSolver:  Solving for Ux, Initial residual = 0.000855624, Final residual = 3.24787e-06, No Iterations 8
smoothSolver:  Solving for Uy, Initial residual = 0.000748258, Final residual = 3.86917e-06, No Iterations 8
GAMG:  Solving for p, Initial residual = 0.000235973, Final residual = 1.83395e-06, No Iterations 6
time step continuity errors : sum local = 5.75087e-07, global = 9.7915e-17, cumulative = 9.2234e-16
smoothSolver:  Solving for nuTilda, Initial residual = 0.000808937, Final residual = 3.56553e-06, No Iterations 8
bounding nuTilda, min: -0.000185368 max: 0.400762 average: 0.0452862
ExecutionTime = 9.4 s  ClockTime = 10 s

forces wings output:
    sum of forces:
        pressure : (0.174442 4.9954 -5.21124e-20)
        viscous  : (0.318715 -0.0108364 2.18009e-21)
        porous   : (0 0 0)
    sum of moments:
        pressure : (-0.24977 0.00872209 0.157338)
        viscous  : (0.000541818 0.0159358 -7.54063e-05)
        porous   : (0 0 0)

Time = 106

smoothSolver:  Solving for Ux, Initial residual = 0.000849177, Final residual = 3.21351e-06, No Iterations 8
smoothSolver:  Solving for Uy, Initial residual = 0.000736764, Final residual = 3.79471e-06, No Iterations 8
GAMG:  Solving for p, Initial residual = 0.000233745, Final residual = 1.7991e-06, No Iterations 6
time step continuity errors : sum local = 5.64262e-07, global = 2.2786e-16, cumulative = 1.1502e-15
smoothSolver:  Solving for nuTilda, Initial residual = 0.000793317, Final residual = 3.48923e-06, No Iterations 8
bounding nuTilda, min: -3.94716e-05 max: 0.400762 average: 0.0450307
ExecutionTime = 9.49 s  ClockTime = 10 s

Time = 107

smoothSolver:  Solving for Ux, Initial residual = 0.000842792, Final residual = 3.17964e-06, No Iterations 8
smoothSolver:  Solving for Uy, Initial residual = 0.000725426, Final residual = 3.7208e-06, No Iterations 8
GAMG:  Solving for p, Initial residual = 0.000231766, Final residual = 1.77054e-06, No Iterations 6
time step continuity errors : sum local = 5.55355e-07, global = -1.11791e-16, cumulative = 1.03841e-15
smoothSolver:  Solving for nuTilda, Initial residual = 0.000778055, Final residual = 3.41479e-06, No Iterations 8
bounding nuTilda, min: -0.000186702 max: 0.400761 average: 0.0447785
ExecutionTime = 9.58 s  ClockTime = 10 s

Time = 108

smoothSolver:  Solving for Ux, Initial residual = 0.000836413, Final residual = 3.14574e-06, No Iterations 8
smoothSolver:  Solving for Uy, Initial residual = 0.00071395, Final residual = 3.64775e-06, No Iterations 8
GAMG:  Solving for p, Initial residual = 0.000229574, Final residual = 1.73189e-06, No Iterations 6
time step continuity errors : sum local = 5.43331e-07, global = 4.83955e-17, cumulative = 1.0868e-15
smoothSolver:  Solving for nuTilda, Initial residual = 0.000763142, Final residual = 3.34215e-06, No Iterations 8
bounding nuTilda, min: -3.67343e-05 max: 0.400761 average: 0.0445296
ExecutionTime = 9.67 s  ClockTime = 10 s

Time = 109

smoothSolver:  Solving for Ux, Initial residual = 0.0008301, Final residual = 3.11222e-06, No Iterations 8
smoothSolver:  Solving for Uy, Initial residual = 0.000702615, Final residual = 3.57527e-06, No Iterations 8
GAMG:  Solving for p, Initial residual = 0.000227546, Final residual = 1.70189e-06, No Iterations 6
time step continuity errors : sum local = 5.3397e-07, global = -8.60253e-17, cumulative = 1.00078e-15
smoothSolver:  Solving for nuTilda, Initial residual = 0.000748567, Final residual = 3.27123e-06, No Iterations 8
bounding nuTilda, min: -0.000188231 max: 0.400761 average: 0.0442838
ExecutionTime = 9.76 s  ClockTime = 10 s

Time = 110

smoothSolver:  Solving for Ux, Initial residual = 0.000823796, Final residual = 3.07866e-06, No Iterations 8
smoothSolver:  Solving for Uy, Initial residual = 0.000691166, Final residual = 3.50381e-06, No Iterations 8
GAMG:  Solving for p, Initial residual = 0.000225395, Final residual = 1.66243e-06, No Iterations 6
time step continuity errors : sum local = 5.21689e-07, global = 1.3329e-16, cumulative = 1.13407e-15
smoothSolver:  Solving for nuTilda, Initial residual = 0.000734321, Final residual = 3.20197e-06, No Iterations 8
bounding nuTilda, min: -3.36917e-05 max: 0.400761 average: 0.0440411
ExecutionTime = 9.85 s  ClockTime = 10 s

forces wings output:
    sum of forces:
        pressure : (0.178023 5.09796 -5.20473e-20)
        viscous  : (0.313312 -0.0106361 2.19103e-21)
        porous   : (0 0 0)
    sum of moments:
        pressure : (-0.254898 0.00890116 0.159634)
        viscous  : (0.000531803 0.0156656 -7.85643e-05)
        porous   : (0 0 0)

Time = 111

smoothSolver:  Solving for Ux, Initial residual = 0.000817547, Final residual = 3.04547e-06, No Iterations 8
smoothSolver:  Solving for Uy, Initial residual = 0.000679884, Final residual = 3.43313e-06, No Iterations 8
GAMG:  Solving for p, Initial residual = 0.000223357, Final residual = 1.63221e-06, No Iterations 6
time step continuity errors : sum local = 5.12258e-07, global = -8.38544e-17, cumulative = 1.05021e-15
smoothSolver:  Solving for nuTilda, Initial residual = 0.000720398, Final residual = 3.13433e-06, No Iterations 8
bounding nuTilda, min: -0.000189929 max: 0.40076 average: 0.0438015
ExecutionTime = 9.94 s  ClockTime = 10 s

Time = 112

smoothSolver:  Solving for Ux, Initial residual = 0.000811303, Final residual = 3.01223e-06, No Iterations 8
smoothSolver:  Solving for Uy, Initial residual = 0.000668558, Final residual = 3.3636e-06, No Iterations 8
GAMG:  Solving for p, Initial residual = 0.00022114, Final residual = 1.59094e-06, No Iterations 6
time step continuity errors : sum local = 4.99408e-07, global = 1.47086e-16, cumulative = 1.1973e-15
smoothSolver:  Solving for nuTilda, Initial residual = 0.00070679, Final residual = 3.06825e-06, No Iterations 8
bounding nuTilda, min: -2.99934e-05 max: 0.40076 average: 0.043565
ExecutionTime = 10.03 s  ClockTime = 10 s

Time = 113

smoothSolver:  Solving for Ux, Initial residual = 0.000805119, Final residual = 2.97935e-06, No Iterations 8
[...]
smoothSolver:  Solving for Uy, Initial residual = 4.30437e-07, Final residual = 2.38474e-09, No Iterations 6
GAMG:  Solving for p, Initial residual = 4.6351e-06, Final residual = 5.72581e-07, No Iterations 1
time step continuity errors : sum local = 1.77869e-07, global = 3.36316e-16, cumulative = 4.76763e-14
smoothSolver:  Solving for nuTilda, Initial residual = 2.21733e-08, Final residual = 2.36541e-10, No Iterations 2
ExecutionTime = 347.08 s  ClockTime = 348 s

Time = 4973

smoothSolver:  Solving for Ux, Initial residual = 2.96727e-07, Final residual = 3.38188e-09, No Iterations 4
smoothSolver:  Solving for Uy, Initial residual = 4.29242e-07, Final residual = 2.38267e-09, No Iterations 6
GAMG:  Solving for p, Initial residual = 4.71033e-06, Final residual = 5.75835e-07, No Iterations 1
time step continuity errors : sum local = 1.78878e-07, global = 9.96947e-17, cumulative = 4.7776e-14
smoothSolver:  Solving for nuTilda, Initial residual = 1.51332e-08, Final residual = 2.43161e-10, No Iterations 2
bounding nuTilda, min: -0.000263558 max: 0.400843 average: 0.0257503
ExecutionTime = 347.15 s  ClockTime = 348 s

Time = 4974

smoothSolver:  Solving for Ux, Initial residual = 3.09103e-07, Final residual = 3.41347e-09, No Iterations 4
smoothSolver:  Solving for Uy, Initial residual = 4.30437e-07, Final residual = 2.38474e-09, No Iterations 6
GAMG:  Solving for p, Initial residual = 4.6351e-06, Final residual = 5.72581e-07, No Iterations 1
time step continuity errors : sum local = 1.77869e-07, global = 9.55563e-17, cumulative = 4.78716e-14
smoothSolver:  Solving for nuTilda, Initial residual = 2.21733e-08, Final residual = 2.36541e-10, No Iterations 2
ExecutionTime = 347.21 s  ClockTime = 348 s

Time = 4975

smoothSolver:  Solving for Ux, Initial residual = 2.96727e-07, Final residual = 3.38188e-09, No Iterations 4
smoothSolver:  Solving for Uy, Initial residual = 4.29242e-07, Final residual = 2.38267e-09, No Iterations 6
GAMG:  Solving for p, Initial residual = 4.71033e-06, Final residual = 5.75835e-07, No Iterations 1
time step continuity errors : sum local = 1.78878e-07, global = -9.64963e-17, cumulative = 4.77751e-14
smoothSolver:  Solving for nuTilda, Initial residual = 1.51332e-08, Final residual = 2.43161e-10, No Iterations 2
bounding nuTilda, min: -0.000263558 max: 0.400843 average: 0.0257503
ExecutionTime = 347.28 s  ClockTime = 349 s

forces wings output:
    sum of forces:
        pressure : (0.183293 5.24888 -5.65351e-20)
        viscous  : (0.221752 -0.00740709 2.60034e-21)
        porous   : (0 0 0)
    sum of moments:
        pressure : (-0.262444 0.00916466 0.0396293)
        viscous  : (0.000370354 0.0110876 -8.91112e-05)
        porous   : (0 0 0)

Time = 4976

smoothSolver:  Solving for Ux, Initial residual = 3.09103e-07, Final residual = 3.41347e-09, No Iterations 4
smoothSolver:  Solving for Uy, Initial residual = 4.30437e-07, Final residual = 2.38474e-09, No Iterations 6
GAMG:  Solving for p, Initial residual = 4.6351e-06, Final residual = 5.72581e-07, No Iterations 1
time step continuity errors : sum local = 1.77869e-07, global = 2.08948e-16, cumulative = 4.7984e-14
smoothSolver:  Solving for nuTilda, Initial residual = 2.21733e-08, Final residual = 2.36541e-10, No Iterations 2
ExecutionTime = 347.36 s  ClockTime = 349 s

Time = 4977

smoothSolver:  Solving for Ux, Initial residual = 2.96727e-07, Final residual = 3.38188e-09, No Iterations 4
smoothSolver:  Solving for Uy, Initial residual = 4.29242e-07, Final residual = 2.38267e-09, No Iterations 6
GAMG:  Solving for p, Initial residual = 4.71033e-06, Final residual = 5.75835e-07, No Iterations 1
time step continuity errors : sum local = 1.78878e-07, global = 1.40391e-16, cumulative = 4.81244e-14
smoothSolver:  Solving for nuTilda, Initial residual = 1.51332e-08, Final residual = 2.43161e-10, No Iterations 2
bounding nuTilda, min: -0.000263558 max: 0.400843 average: 0.0257503
ExecutionTime = 347.43 s  ClockTime = 349 s

Time = 4978

smoothSolver:  Solving for Ux, Initial residual = 3.09103e-07, Final residual = 3.41347e-09, No Iterations 4
smoothSolver:  Solving for Uy, Initial residual = 4.30437e-07, Final residual = 2.38474e-09, No Iterations 6
GAMG:  Solving for p, Initial residual = 4.6351e-06, Final residual = 5.72581e-07, No Iterations 1
time step continuity errors : sum local = 1.77869e-07, global = 2.18411e-16, cumulative = 4.83428e-14
smoothSolver:  Solving for nuTilda, Initial residual = 2.21733e-08, Final residual = 2.36541e-10, No Iterations 2
ExecutionTime = 347.51 s  ClockTime = 349 s

Time = 4979

smoothSolver:  Solving for Ux, Initial residual = 2.96727e-07, Final residual = 3.38188e-09, No Iterations 4
smoothSolver:  Solving for Uy, Initial residual = 4.29242e-07, Final residual = 2.38267e-09, No Iterations 6
GAMG:  Solving for p, Initial residual = 4.71033e-06, Final residual = 5.75835e-07, No Iterations 1
time step continuity errors : sum local = 1.78878e-07, global = 2.35086e-17, cumulative = 4.83663e-14
smoothSolver:  Solving for nuTilda, Initial residual = 1.51332e-08, Final residual = 2.43161e-10, No Iterations 2
bounding nuTilda, min: -0.000263558 max: 0.400843 average: 0.0257503
ExecutionTime = 347.57 s  ClockTime = 349 s

Time = 4980

smoothSolver:  Solving for Ux, Initial residual = 3.09103e-07, Final residual = 3.41347e-09, No Iterations 4
smoothSolver:  Solving for Uy, Initial residual = 4.30437e-07, Final residual = 2.38474e-09, No Iterations 6
GAMG:  Solving for p, Initial residual = 4.6351e-06, Final residual = 5.72581e-07, No Iterations 1
time step continuity errors : sum local = 1.77869e-07, global = 3.55209e-16, cumulative = 4.87215e-14
smoothSolver:  Solving for nuTilda, Initial residual = 2.21733e-08, Final residual = 2.36541e-10, No Iterations 2
ExecutionTime = 347.64 s  ClockTime = 349 s

forces wings output:
    sum of forces:
        pressure : (0.183292 5.24885 -5.65437e-20)
        viscous  : (0.221775 -0.00740863 2.59612e-21)
        porous   : (0 0 0)
    sum of moments:
        pressure : (-0.262443 0.00916461 0.0396262)
        viscous  : (0.000370432 0.0110887 -8.89788e-05)
        porous   : (0 0 0)

Time = 4981

smoothSolver:  Solving for Ux, Initial residual = 2.96727e-07, Final residual = 3.38188e-09, No Iterations 4
smoothSolver:  Solving for Uy, Initial residual = 4.29242e-07, Final residual = 2.38267e-09, No Iterations 6
GAMG:  Solving for p, Initial residual = 4.71033e-06, Final residual = 5.75835e-07, No Iterations 1
time step continuity errors : sum local = 1.78878e-07, global = 1.83921e-16, cumulative = 4.89055e-14
smoothSolver:  Solving for nuTilda, Initial residual = 1.51332e-08, Final residual = 2.43161e-10, No Iterations 2
bounding nuTilda, min: -0.000263558 max: 0.400843 average: 0.0257503
ExecutionTime = 347.71 s  ClockTime = 349 s

Time = 4982

smoothSolver:  Solving for Ux, Initial residual = 3.09103e-07, Final residual = 3.41347e-09, No Iterations 4
smoothSolver:  Solving for Uy, Initial residual = 4.30437e-07, Final residual = 2.38474e-09, No Iterations 6
GAMG:  Solving for p, Initial residual = 4.6351e-06, Final residual = 5.72581e-07, No Iterations 1
time step continuity errors : sum local = 1.77869e-07, global = 7.03967e-17, cumulative = 4.89759e-14
smoothSolver:  Solving for nuTilda, Initial residual = 2.21733e-08, Final residual = 2.36541e-10, No Iterations 2
ExecutionTime = 347.77 s  ClockTime = 349 s

Time = 4983

smoothSolver:  Solving for Ux, Initial residual = 2.96727e-07, Final residual = 3.38188e-09, No Iterations 4
smoothSolver:  Solving for Uy, Initial residual = 4.29242e-07, Final residual = 2.38267e-09, No Iterations 6
GAMG:  Solving for p, Initial residual = 4.71033e-06, Final residual = 5.75835e-07, No Iterations 1
time step continuity errors : sum local = 1.78878e-07, global = -8.79992e-17, cumulative = 4.88879e-14
smoothSolver:  Solving for nuTilda, Initial residual = 1.51332e-08, Final residual = 2.43161e-10, No Iterations 2
bounding nuTilda, min: -0.000263558 max: 0.400843 average: 0.0257503
ExecutionTime = 347.84 s  ClockTime = 349 s

Time = 4984

smoothSolver:  Solving for Ux, Initial residual = 3.09103e-07, Final residual = 3.41347e-09, No Iterations 4
smoothSolver:  Solving for Uy, Initial residual = 4.30437e-07, Final residual = 2.38474e-09, No Iterations 6
GAMG:  Solving for p, Initial residual = 4.6351e-06, Final residual = 5.72581e-07, No Iterations 1
time step continuity errors : sum local = 1.77869e-07, global = 2.7705e-16, cumulative = 4.91649e-14
smoothSolver:  Solving for nuTilda, Initial residual = 2.21733e-08, Final residual = 2.36541e-10, No Iterations 2
ExecutionTime = 347.91 s  ClockTime = 349 s

Time = 4985

smoothSolver:  Solving for Ux, Initial residual = 2.96727e-07, Final residual = 3.38188e-09, No Iterations 4
smoothSolver:  Solving for Uy, Initial residual = 4.29242e-07, Final residual = 2.38267e-09, No Iterations 6
GAMG:  Solving for p, Initial residual = 4.71033e-06, Final residual = 5.75835e-07, No Iterations 1
time step continuity errors : sum local = 1.78878e-07, global = 1.23007e-16, cumulative = 4.92879e-14
smoothSolver:  Solving for nuTilda, Initial residual = 1.51332e-08, Final residual = 2.43161e-10, No Iterations 2
bounding nuTilda, min: -0.000263558 max: 0.400843 average: 0.0257503
ExecutionTime = 347.97 s  ClockTime = 349 s

forces wings output:
    sum of forces:
        pressure : (0.183293 5.24888 -5.65351e-20)
        viscous  : (0.221752 -0.00740709 2.60034e-21)
        porous   : (0 0 0)
    sum of moments:
        pressure : (-0.262444 0.00916466 0.0396293)
        viscous  : (0.000370354 0.0110876 -8.91112e-05)
        porous   : (0 0 0)

Time = 4986

smoothSolver:  Solving for Ux, Initial residual = 3.09103e-07, Final residual = 3.41347e-09, No Iterations 4
smoothSolver:  Solving for Uy, Initial residual = 4.30437e-07, Final residual = 2.38474e-09, No Iterations 6
GAMG:  Solving for p, Initial residual = 4.6351e-06, Final residual = 5.72581e-07, No Iterations 1
time step continuity errors : sum local = 1.77869e-07, global = 1.55816e-16, cumulative = 4.94437e-14
smoothSolver:  Solving for nuTilda, Initial residual = 2.21733e-08, Final residual = 2.36541e-10, No Iterations 2
ExecutionTime = 348.05 s  ClockTime = 349 s

Time = 4987

smoothSolver:  Solving for Ux, Initial residual = 2.96727e-07, Final residual = 3.38188e-09, No Iterations 4
smoothSolver:  Solving for Uy, Initial residual = 4.29242e-07, Final residual = 2.38267e-09, No Iterations 6
GAMG:  Solving for p, Initial residual = 4.71033e-06, Final residual = 5.75835e-07, No Iterations 1
time step continuity errors : sum local = 1.78878e-07, global = -4.34368e-17, cumulative = 4.94003e-14
smoothSolver:  Solving for nuTilda, Initial residual = 1.51332e-08, Final residual = 2.43161e-10, No Iterations 2
bounding nuTilda, min: -0.000263558 max: 0.400843 average: 0.0257503
ExecutionTime = 348.11 s  ClockTime = 349 s

Time = 4988

smoothSolver:  Solving for Ux, Initial residual = 3.09103e-07, Final residual = 3.41347e-09, No Iterations 4
smoothSolver:  Solving for Uy, Initial residual = 4.30437e-07, Final residual = 2.38474e-09, No Iterations 6
GAMG:  Solving for p, Initial residual = 4.6351e-06, Final residual = 5.72581e-07, No Iterations 1
time step continuity errors : sum local = 1.77869e-07, global = 8.82732e-17, cumulative = 4.94886e-14
smoothSolver:  Solving for nuTilda, Initial residual = 2.21733e-08, Final residual = 2.36541e-10, No Iterations 2
ExecutionTime = 348.18 s  ClockTime = 349 s

Time = 4989

smoothSolver:  Solving for Ux, Initial residual = 2.96727e-07, Final residual = 3.38188e-09, No Iterations 4
smoothSolver:  Solving for Uy, Initial residual = 4.29242e-07, Final residual = 2.38267e-09, No Iterations 6
GAMG:  Solving for p, Initial residual = 4.71033e-06, Final residual = 5.75835e-07, No Iterations 1
time step continuity errors : sum local = 1.78878e-07, global = 1.35244e-18, cumulative = 4.94899e-14
smoothSolver:  Solving for nuTilda, Initial residual = 1.51332e-08, Final residual = 2.43161e-10, No Iterations 2
bounding nuTilda, min: -0.000263558 max: 0.400843 average: 0.0257503
ExecutionTime = 348.24 s  ClockTime = 349 s

Time = 4990

smoothSolver:  Solving for Ux, Initial residual = 3.09103e-07, Final residual = 3.41347e-09, No Iterations 4
smoothSolver:  Solving for Uy, Initial residual = 4.30437e-07, Final residual = 2.38474e-09, No Iterations 6
GAMG:  Solving for p, Initial residual = 4.6351e-06, Final residual = 5.72581e-07, No Iterations 1
time step continuity errors : sum local = 1.77869e-07, global = 2.01997e-16, cumulative = 4.96919e-14
smoothSolver:  Solving for nuTilda, Initial residual = 2.21733e-08, Final residual = 2.36541e-10, No Iterations 2
ExecutionTime = 348.31 s  ClockTime = 350 s

forces wings output:
    sum of forces:
        pressure : (0.183292 5.24885 -5.65437e-20)
        viscous  : (0.221775 -0.00740863 2.59612e-21)
        porous   : (0 0 0)
    sum of moments:
        pressure : (-0.262443 0.00916461 0.0396262)
        viscous  : (0.000370432 0.0110887 -8.89788e-05)
        porous   : (0 0 0)

Time = 4991

smoothSolver:  Solving for Ux, Initial residual = 2.96727e-07, Final residual = 3.38188e-09, No Iterations 4
smoothSolver:  Solving for Uy, Initial residual = 4.29242e-07, Final residual = 2.38267e-09, No Iterations 6
GAMG:  Solving for p, Initial residual = 4.71033e-06, Final residual = 5.75835e-07, No Iterations 1
time step continuity errors : sum local = 1.78878e-07, global = -2.34824e-16, cumulative = 4.94571e-14
smoothSolver:  Solving for nuTilda, Initial residual = 1.51332e-08, Final residual = 2.43161e-10, No Iterations 2
bounding nuTilda, min: -0.000263558 max: 0.400843 average: 0.0257503
ExecutionTime = 348.38 s  ClockTime = 350 s

Time = 4992

smoothSolver:  Solving for Ux, Initial residual = 3.09103e-07, Final residual = 3.41347e-09, No Iterations 4
smoothSolver:  Solving for Uy, Initial residual = 4.30437e-07, Final residual = 2.38474e-09, No Iterations 6
GAMG:  Solving for p, Initial residual = 4.6351e-06, Final residual = 5.72581e-07, No Iterations 1
time step continuity errors : sum local = 1.77869e-07, global = 5.53364e-17, cumulative = 4.95124e-14
smoothSolver:  Solving for nuTilda, Initial residual = 2.21733e-08, Final residual = 2.36541e-10, No Iterations 2
ExecutionTime = 348.45 s  ClockTime = 350 s

Time = 4993

smoothSolver:  Solving for Ux, Initial residual = 2.96727e-07, Final residual = 3.38188e-09, No Iterations 4
smoothSolver:  Solving for Uy, Initial residual = 4.29242e-07, Final residual = 2.38267e-09, No Iterations 6
GAMG:  Solving for p, Initial residual = 4.71033e-06, Final residual = 5.75835e-07, No Iterations 1
time step continuity errors : sum local = 1.78878e-07, global = -6.02649e-17, cumulative = 4.94522e-14
smoothSolver:  Solving for nuTilda, Initial residual = 1.51332e-08, Final residual = 2.43161e-10, No Iterations 2
bounding nuTilda, min: -0.000263558 max: 0.400843 average: 0.0257503
ExecutionTime = 348.51 s  ClockTime = 350 s

Time = 4994

smoothSolver:  Solving for Ux, Initial residual = 3.09103e-07, Final residual = 3.41347e-09, No Iterations 4
smoothSolver:  Solving for Uy, Initial residual = 4.30437e-07, Final residual = 2.38474e-09, No Iterations 6
GAMG:  Solving for p, Initial residual = 4.6351e-06, Final residual = 5.72581e-07, No Iterations 1
time step continuity errors : sum local = 1.77869e-07, global = 6.93263e-17, cumulative = 4.95215e-14
smoothSolver:  Solving for nuTilda, Initial residual = 2.21733e-08, Final residual = 2.36541e-10, No Iterations 2
ExecutionTime = 348.58 s  ClockTime = 350 s

Time = 4995

smoothSolver:  Solving for Ux, Initial residual = 2.96727e-07, Final residual = 3.38188e-09, No Iterations 4
smoothSolver:  Solving for Uy, Initial residual = 4.29242e-07, Final residual = 2.38267e-09, No Iterations 6
GAMG:  Solving for p, Initial residual = 4.71033e-06, Final residual = 5.75835e-07, No Iterations 1
time step continuity errors : sum local = 1.78878e-07, global = -4.78673e-17, cumulative = 4.94736e-14
smoothSolver:  Solving for nuTilda, Initial residual = 1.51332e-08, Final residual = 2.43161e-10, No Iterations 2
bounding nuTilda, min: -0.000263558 max: 0.400843 average: 0.0257503
ExecutionTime = 348.64 s  ClockTime = 350 s

forces wings output:
    sum of forces:
        pressure : (0.183293 5.24888 -5.65351e-20)
        viscous  : (0.221752 -0.00740709 2.60034e-21)
        porous   : (0 0 0)
    sum of moments:
        pressure : (-0.262444 0.00916466 0.0396293)
        viscous  : (0.000370354 0.0110876 -8.91112e-05)
        porous   : (0 0 0)

Time = 4996

smoothSolver:  Solving for Ux, Initial residual = 3.09103e-07, Final residual = 3.41347e-09, No Iterations 4
smoothSolver:  Solving for Uy, Initial residual = 4.30437e-07, Final residual = 2.38474e-09, No Iterations 6
GAMG:  Solving for p, Initial residual = 4.6351e-06, Final residual = 5.72581e-07, No Iterations 1
time step continuity errors : sum local = 1.77869e-07, global = 7.63917e-17, cumulative = 4.955e-14
smoothSolver:  Solving for nuTilda, Initial residual = 2.21733e-08, Final residual = 2.36541e-10, No Iterations 2
ExecutionTime = 348.71 s  ClockTime = 350 s

Time = 4997

smoothSolver:  Solving for Ux, Initial residual = 2.96727e-07, Final residual = 3.38188e-09, No Iterations 4
smoothSolver:  Solving for Uy, Initial residual = 4.29242e-07, Final residual = 2.38267e-09, No Iterations 6
GAMG:  Solving for p, Initial residual = 4.71033e-06, Final residual = 5.75835e-07, No Iterations 1
time step continuity errors : sum local = 1.78878e-07, global = -2.37052e-17, cumulative = 4.95263e-14
smoothSolver:  Solving for nuTilda, Initial residual = 1.51332e-08, Final residual = 2.43161e-10, No Iterations 2
bounding nuTilda, min: -0.000263558 max: 0.400843 average: 0.0257503
ExecutionTime = 348.78 s  ClockTime = 350 s

Time = 4998

smoothSolver:  Solving for Ux, Initial residual = 3.09103e-07, Final residual = 3.41347e-09, No Iterations 4
smoothSolver:  Solving for Uy, Initial residual = 4.30437e-07, Final residual = 2.38474e-09, No Iterations 6
GAMG:  Solving for p, Initial residual = 4.6351e-06, Final residual = 5.72581e-07, No Iterations 1
time step continuity errors : sum local = 1.77869e-07, global = 4.01347e-16, cumulative = 4.99277e-14
smoothSolver:  Solving for nuTilda, Initial residual = 2.21733e-08, Final residual = 2.36541e-10, No Iterations 2
ExecutionTime = 348.85 s  ClockTime = 350 s

Time = 4999

smoothSolver:  Solving for Ux, Initial residual = 2.96727e-07, Final residual = 3.38188e-09, No Iterations 4
smoothSolver:  Solving for Uy, Initial residual = 4.29242e-07, Final residual = 2.38267e-09, No Iterations 6
GAMG:  Solving for p, Initial residual = 4.71033e-06, Final residual = 5.75835e-07, No Iterations 1
time step continuity errors : sum local = 1.78878e-07, global = 8.81106e-17, cumulative = 5.00158e-14
smoothSolver:  Solving for nuTilda, Initial residual = 1.51332e-08, Final residual = 2.43161e-10, No Iterations 2
bounding nuTilda, min: -0.000263558 max: 0.400843 average: 0.0257503
ExecutionTime = 348.91 s  ClockTime = 350 s

Time = 5000

smoothSolver:  Solving for Ux, Initial residual = 3.09103e-07, Final residual = 3.41347e-09, No Iterations 4
smoothSolver:  Solving for Uy, Initial residual = 4.30437e-07, Final residual = 2.38474e-09, No Iterations 6
GAMG:  Solving for p, Initial residual = 4.6351e-06, Final residual = 5.72581e-07, No Iterations 1
time step continuity errors : sum local = 1.77869e-07, global = -7.40284e-18, cumulative = 5.00084e-14
smoothSolver:  Solving for nuTilda, Initial residual = 2.21733e-08, Final residual = 2.36541e-10, No Iterations 2
ExecutionTime = 349.11 s  ClockTime = 350 s

forces wings output:
    sum of forces:
        pressure : (0.183292 5.24885 -5.65437e-20)
        viscous  : (0.221775 -0.00740863 2.59612e-21)
        porous   : (0 0 0)
    sum of moments:
        pressure : (-0.262443 0.00916461 0.0396262)
        viscous  : (0.000370432 0.0110887 -8.89788e-05)
        porous   : (0 0 0)

End

