/*---------------------------------------------------------------------------*\
| =========                 |                                                 |
| \\      /  F ield         | OpenFOAM: The Open Source CFD Toolbox           |
|  \\    /   O peration     | Version:  2.3.0                                 |
|   \\  /    A nd           | Web:      www.OpenFOAM.org                      |
|    \\/     M anipulation  |                                                 |
\*---------------------------------------------------------------------------*/
Build  : 2.3.0-f5222ca19ce6
Exec   : simpleFoam -case Runs/first_arc_300_4/case
Date   : Jan 12 2015
Time   : 00:49:32
Host   : "lordvon-XPS-8300"
PID    : 10133
Case   : Runs/first_arc_300_4/case
nProcs : 1
sigFpe : Enabling floating point exception trapping (FOAM_SIGFPE).
fileModificationChecking : Monitoring run-time modified files using timeStampMaster
allowSystemOperations : Disallowing user-supplied system call operations

// * * * * * * * * * * * * * * * * * * * * * * * * * * * * * * * * * * * * * //
Create time

Create mesh for time = 0

Reading field p

Reading field U

Reading/calculating face flux field phi

Selecting incompressible transport model Newtonian
Selecting RAS turbulence model SpalartAllmaras
SpalartAllmarasCoeffs
{
    sigmaNut        0.66666;
    kappa           0.41;
    Cb1             0.1355;
    Cb2             0.622;
    Cw2             0.3;
    Cw3             2;
    Cv1             7.1;
    Cv2             5;
}

    Employing Ashford correction
No finite volume options present


SIMPLE: convergence criteria
    field p	 tolerance 1e-12
    field U	 tolerance 1e-12
    field nuTilda	 tolerance 1e-12


Starting time loop

forces wings:
    Not including porosity effects

Time = 1

smoothSolver:  Solving for Ux, Initial residual = 1, Final residual = 0.00356342, No Iterations 6
smoothSolver:  Solving for Uy, Initial residual = 1, Final residual = 0.00794065, No Iterations 4
GAMG:  Solving for p, Initial residual = 1, Final residual = 0.00934538, No Iterations 9
time step continuity errors : sum local = 0.000930358, global = -3.64475e-17, cumulative = -3.64475e-17
smoothSolver:  Solving for nuTilda, Initial residual = 1, Final residual = 0.00394854, No Iterations 4
ExecutionTime = 0.36 s  ClockTime = 0 s

Time = 2

smoothSolver:  Solving for Ux, Initial residual = 0.53421, Final residual = 0.00269639, No Iterations 8
smoothSolver:  Solving for Uy, Initial residual = 0.595341, Final residual = 0.0033135, No Iterations 8
GAMG:  Solving for p, Initial residual = 0.740169, Final residual = 0.00520455, No Iterations 6
time step continuity errors : sum local = 0.00103616, global = 2.76426e-17, cumulative = -8.80491e-18
smoothSolver:  Solving for nuTilda, Initial residual = 0.186161, Final residual = 0.000728184, No Iterations 6
ExecutionTime = 0.45 s  ClockTime = 1 s

Time = 3

smoothSolver:  Solving for Ux, Initial residual = 0.19842, Final residual = 0.00098515, No Iterations 8
smoothSolver:  Solving for Uy, Initial residual = 0.194218, Final residual = 0.00106581, No Iterations 8
GAMG:  Solving for p, Initial residual = 0.567726, Final residual = 0.00516666, No Iterations 8
time step continuity errors : sum local = 0.00138537, global = 2.24205e-16, cumulative = 2.154e-16
smoothSolver:  Solving for nuTilda, Initial residual = 0.095154, Final residual = 0.000872309, No Iterations 6
ExecutionTime = 0.56 s  ClockTime = 1 s

Time = 4

smoothSolver:  Solving for Ux, Initial residual = 0.0672192, Final residual = 0.000270899, No Iterations 8
smoothSolver:  Solving for Uy, Initial residual = 0.0589577, Final residual = 0.000305747, No Iterations 8
GAMG:  Solving for p, Initial residual = 0.435908, Final residual = 0.00360494, No Iterations 7
time step continuity errors : sum local = 0.000955477, global = -2.54447e-16, cumulative = -3.90477e-17
smoothSolver:  Solving for nuTilda, Initial residual = 0.0720439, Final residual = 0.000210477, No Iterations 8
ExecutionTime = 0.64 s  ClockTime = 1 s

Time = 5

smoothSolver:  Solving for Ux, Initial residual = 0.190476, Final residual = 0.000945752, No Iterations 8
smoothSolver:  Solving for Uy, Initial residual = 0.235885, Final residual = 0.00126859, No Iterations 8
GAMG:  Solving for p, Initial residual = 0.374732, Final residual = 0.00351065, No Iterations 6
time step continuity errors : sum local = 0.000971049, global = -1.28514e-16, cumulative = -1.67562e-16
smoothSolver:  Solving for nuTilda, Initial residual = 0.0592601, Final residual = 0.000191339, No Iterations 8
ExecutionTime = 0.73 s  ClockTime = 1 s

forces wings output:
    sum of forces:
        pressure : (-180.719 -492.707 -1.36323e-18)
        viscous  : (0.534448 -0.0260359 4.83931e-21)
        porous   : (0 0 0)
    sum of moments:
        pressure : (24.6353 -9.03594 -398.298)
        viscous  : (0.00130179 0.0267224 -0.0386765)
        porous   : (0 0 0)

Time = 6

smoothSolver:  Solving for Ux, Initial residual = 0.156419, Final residual = 0.000738802, No Iterations 8
smoothSolver:  Solving for Uy, Initial residual = 0.204844, Final residual = 0.00109477, No Iterations 8
GAMG:  Solving for p, Initial residual = 0.309848, Final residual = 0.00302783, No Iterations 8
time step continuity errors : sum local = 0.000864774, global = -1.70062e-16, cumulative = -3.37623e-16
smoothSolver:  Solving for nuTilda, Initial residual = 0.0493238, Final residual = 0.000166128, No Iterations 8
ExecutionTime = 0.83 s  ClockTime = 1 s

Time = 7

smoothSolver:  Solving for Ux, Initial residual = 0.103136, Final residual = 0.000435077, No Iterations 8
smoothSolver:  Solving for Uy, Initial residual = 0.14252, Final residual = 0.000734729, No Iterations 8
GAMG:  Solving for p, Initial residual = 0.232506, Final residual = 0.00230863, No Iterations 6
time step continuity errors : sum local = 0.000644996, global = 2.0525e-17, cumulative = -3.17098e-16
smoothSolver:  Solving for nuTilda, Initial residual = 0.0414713, Final residual = 0.000143225, No Iterations 8
ExecutionTime = 0.92 s  ClockTime = 1 s

Time = 8

smoothSolver:  Solving for Ux, Initial residual = 0.12289, Final residual = 0.000587336, No Iterations 8
smoothSolver:  Solving for Uy, Initial residual = 0.150404, Final residual = 0.000790635, No Iterations 8
GAMG:  Solving for p, Initial residual = 0.251454, Final residual = 0.00240446, No Iterations 6
time step continuity errors : sum local = 0.000707162, global = -2.04342e-16, cumulative = -5.2144e-16
smoothSolver:  Solving for nuTilda, Initial residual = 0.0351558, Final residual = 0.000123996, No Iterations 8
ExecutionTime = 1.01 s  ClockTime = 1 s

Time = 9

smoothSolver:  Solving for Ux, Initial residual = 0.0522633, Final residual = 0.000229117, No Iterations 8
smoothSolver:  Solving for Uy, Initial residual = 0.0428384, Final residual = 0.000222247, No Iterations 8
GAMG:  Solving for p, Initial residual = 0.209924, Final residual = 0.00172025, No Iterations 8
time step continuity errors : sum local = 0.000508026, global = 1.22833e-16, cumulative = -3.98606e-16
smoothSolver:  Solving for nuTilda, Initial residual = 0.0301737, Final residual = 0.000108729, No Iterations 8
ExecutionTime = 1.1 s  ClockTime = 1 s

Time = 10

smoothSolver:  Solving for Ux, Initial residual = 0.0506484, Final residual = 0.000219483, No Iterations 8
smoothSolver:  Solving for Uy, Initial residual = 0.0624845, Final residual = 0.000319535, No Iterations 8
GAMG:  Solving for p, Initial residual = 0.169903, Final residual = 0.00118784, No Iterations 5
time step continuity errors : sum local = 0.000340429, global = -1.11505e-16, cumulative = -5.10112e-16
smoothSolver:  Solving for nuTilda, Initial residual = 0.0263057, Final residual = 9.69606e-05, No Iterations 8
ExecutionTime = 1.2 s  ClockTime = 1 s

forces wings output:
    sum of forces:
        pressure : (-108.047 -286.389 -5.796e-19)
        viscous  : (0.503335 -0.0435048 4.70977e-21)
        porous   : (0 0 0)
    sum of moments:
        pressure : (14.3195 -5.40237 -237.157)
        viscous  : (0.00217524 0.0251668 -0.0525623)
        porous   : (0 0 0)

Time = 11

smoothSolver:  Solving for Ux, Initial residual = 0.0688686, Final residual = 0.000319846, No Iterations 8
smoothSolver:  Solving for Uy, Initial residual = 0.0907973, Final residual = 0.00046596, No Iterations 8
GAMG:  Solving for p, Initial residual = 0.176418, Final residual = 0.00113099, No Iterations 7
time step continuity errors : sum local = 0.00033362, global = -2.1235e-16, cumulative = -7.22462e-16
smoothSolver:  Solving for nuTilda, Initial residual = 0.0231629, Final residual = 8.74924e-05, No Iterations 8
ExecutionTime = 1.31 s  ClockTime = 1 s

Time = 12

smoothSolver:  Solving for Ux, Initial residual = 0.0316981, Final residual = 0.000121951, No Iterations 8
smoothSolver:  Solving for Uy, Initial residual = 0.0240944, Final residual = 0.00011108, No Iterations 8
GAMG:  Solving for p, Initial residual = 0.138655, Final residual = 0.000968196, No Iterations 7
time step continuity errors : sum local = 0.000279683, global = 2.90602e-16, cumulative = -4.3186e-16
smoothSolver:  Solving for nuTilda, Initial residual = 0.0204528, Final residual = 7.94136e-05, No Iterations 8
ExecutionTime = 1.4 s  ClockTime = 2 s

Time = 13

smoothSolver:  Solving for Ux, Initial residual = 0.0410868, Final residual = 0.00017028, No Iterations 8
smoothSolver:  Solving for Uy, Initial residual = 0.0567272, Final residual = 0.000282714, No Iterations 8
GAMG:  Solving for p, Initial residual = 0.113867, Final residual = 0.000797798, No Iterations 6
time step continuity errors : sum local = 0.000228243, global = -5.93753e-18, cumulative = -4.37798e-16
smoothSolver:  Solving for nuTilda, Initial residual = 0.018151, Final residual = 7.24154e-05, No Iterations 8
ExecutionTime = 1.49 s  ClockTime = 2 s

Time = 14

smoothSolver:  Solving for Ux, Initial residual = 0.0392197, Final residual = 0.000172817, No Iterations 8
smoothSolver:  Solving for Uy, Initial residual = 0.0443211, Final residual = 0.000221991, No Iterations 8
GAMG:  Solving for p, Initial residual = 0.123485, Final residual = 0.00115947, No Iterations 6
time step continuity errors : sum local = 0.000341427, global = 7.77952e-17, cumulative = -3.60003e-16
smoothSolver:  Solving for nuTilda, Initial residual = 0.0162196, Final residual = 6.65242e-05, No Iterations 8
ExecutionTime = 1.58 s  ClockTime = 2 s

Time = 15

smoothSolver:  Solving for Ux, Initial residual = 0.018522, Final residual = 6.97194e-05, No Iterations 8
smoothSolver:  Solving for Uy, Initial residual = 0.0123608, Final residual = 5.52083e-05, No Iterations 8
GAMG:  Solving for p, Initial residual = 0.0975674, Final residual = 0.000840262, No Iterations 6
time step continuity errors : sum local = 0.000242532, global = -5.56738e-18, cumulative = -3.6557e-16
smoothSolver:  Solving for nuTilda, Initial residual = 0.014624, Final residual = 6.16723e-05, No Iterations 8
ExecutionTime = 1.66 s  ClockTime = 2 s

forces wings output:
    sum of forces:
        pressure : (-35.5351 -83.973 -2.24175e-19)
        viscous  : (0.489862 -0.040889 2.98581e-21)
        porous   : (0 0 0)
    sum of moments:
        pressure : (4.19865 -1.77676 -76.7792)
        viscous  : (0.00204445 0.0244931 -0.0493179)
        porous   : (0 0 0)

Time = 16

smoothSolver:  Solving for Ux, Initial residual = 0.0252115, Final residual = 0.000106493, No Iterations 8
smoothSolver:  Solving for Uy, Initial residual = 0.0326227, Final residual = 0.000158773, No Iterations 8
GAMG:  Solving for p, Initial residual = 0.0834127, Final residual = 0.000420651, No Iterations 6
time step continuity errors : sum local = 0.000120309, global = 2.68916e-16, cumulative = -9.66535e-17
smoothSolver:  Solving for nuTilda, Initial residual = 0.0133261, Final residual = 5.76868e-05, No Iterations 8
ExecutionTime = 1.76 s  ClockTime = 2 s

Time = 17

smoothSolver:  Solving for Ux, Initial residual = 0.0237985, Final residual = 0.000101364, No Iterations 8
smoothSolver:  Solving for Uy, Initial residual = 0.0265108, Final residual = 0.000127707, No Iterations 8
GAMG:  Solving for p, Initial residual = 0.0844131, Final residual = 0.00082427, No Iterations 5
time step continuity errors : sum local = 0.000238528, global = 9.26324e-17, cumulative = -4.02115e-18
smoothSolver:  Solving for nuTilda, Initial residual = 0.0122924, Final residual = 5.42727e-05, No Iterations 8
ExecutionTime = 1.86 s  ClockTime = 2 s

Time = 18

smoothSolver:  Solving for Ux, Initial residual = 0.0135662, Final residual = 4.72864e-05, No Iterations 8
smoothSolver:  Solving for Uy, Initial residual = 0.0134949, Final residual = 5.98985e-05, No Iterations 8
GAMG:  Solving for p, Initial residual = 0.0663026, Final residual = 0.000438208, No Iterations 6
time step continuity errors : sum local = 0.000125432, global = 2.26079e-16, cumulative = 2.22058e-16
smoothSolver:  Solving for nuTilda, Initial residual = 0.0113794, Final residual = 5.11538e-05, No Iterations 8
ExecutionTime = 1.96 s  ClockTime = 2 s

Time = 19

smoothSolver:  Solving for Ux, Initial residual = 0.0181912, Final residual = 7.09837e-05, No Iterations 8
smoothSolver:  Solving for Uy, Initial residual = 0.022338, Final residual = 0.000105709, No Iterations 8
GAMG:  Solving for p, Initial residual = 0.0582317, Final residual = 0.000339167, No Iterations 6
time step continuity errors : sum local = 9.60202e-05, global = 4.46455e-17, cumulative = 2.66704e-16
smoothSolver:  Solving for nuTilda, Initial residual = 0.0105494, Final residual = 4.82231e-05, No Iterations 8
ExecutionTime = 2.04 s  ClockTime = 2 s

Time = 20

smoothSolver:  Solving for Ux, Initial residual = 0.0156637, Final residual = 6.17535e-05, No Iterations 8
smoothSolver:  Solving for Uy, Initial residual = 0.0135894, Final residual = 6.27839e-05, No Iterations 8
GAMG:  Solving for p, Initial residual = 0.056367, Final residual = 0.000473882, No Iterations 5
time step continuity errors : sum local = 0.000136379, global = -1.75348e-16, cumulative = 9.13559e-17
smoothSolver:  Solving for nuTilda, Initial residual = 0.00980727, Final residual = 4.55087e-05, No Iterations 8
ExecutionTime = 2.13 s  ClockTime = 2 s

forces wings output:
    sum of forces:
        pressure : (-3.67392 1.54647 -5.48583e-20)
        viscous  : (0.478223 -0.035671 4.58923e-22)
        porous   : (0 0 0)
    sum of moments:
        pressure : (-0.0773237 -0.183696 -6.71863)
        viscous  : (0.00178355 0.0239112 -0.0443963)
        porous   : (0 0 0)

Time = 21

smoothSolver:  Solving for Ux, Initial residual = 0.0110731, Final residual = 4.07708e-05, No Iterations 8
smoothSolver:  Solving for Uy, Initial residual = 0.0097285, Final residual = 4.28696e-05, No Iterations 8
GAMG:  Solving for p, Initial residual = 0.0454767, Final residual = 0.000393235, No Iterations 5
time step continuity errors : sum local = 0.000113977, global = 2.98237e-16, cumulative = 3.89593e-16
smoothSolver:  Solving for nuTilda, Initial residual = 0.00917033, Final residual = 4.3093e-05, No Iterations 8
ExecutionTime = 2.23 s  ClockTime = 2 s

Time = 22

smoothSolver:  Solving for Ux, Initial residual = 0.011877, Final residual = 4.77338e-05, No Iterations 8
smoothSolver:  Solving for Uy, Initial residual = 0.0133883, Final residual = 6.15891e-05, No Iterations 8
GAMG:  Solving for p, Initial residual = 0.040911, Final residual = 0.000358239, No Iterations 5
time step continuity errors : sum local = 0.000103313, global = -6.784e-17, cumulative = 3.21753e-16
smoothSolver:  Solving for nuTilda, Initial residual = 0.00863126, Final residual = 4.09562e-05, No Iterations 8
ExecutionTime = 2.32 s  ClockTime = 2 s

Time = 23

smoothSolver:  Solving for Ux, Initial residual = 0.00943365, Final residual = 3.76933e-05, No Iterations 8
smoothSolver:  Solving for Uy, Initial residual = 0.00772581, Final residual = 3.45634e-05, No Iterations 8
GAMG:  Solving for p, Initial residual = 0.0377623, Final residual = 0.000364496, No Iterations 5
time step continuity errors : sum local = 0.000106073, global = -1.28594e-16, cumulative = 1.93158e-16
smoothSolver:  Solving for nuTilda, Initial residual = 0.00816381, Final residual = 3.90296e-05, No Iterations 8
ExecutionTime = 2.41 s  ClockTime = 3 s

Time = 24

smoothSolver:  Solving for Ux, Initial residual = 0.00706911, Final residual = 2.54048e-05, No Iterations 8
smoothSolver:  Solving for Uy, Initial residual = 0.00756547, Final residual = 3.41065e-05, No Iterations 8
GAMG:  Solving for p, Initial residual = 0.0309103, Final residual = 0.000213303, No Iterations 6
time step continuity errors : sum local = 6.16396e-05, global = -1.7424e-16, cumulative = 1.89188e-17
smoothSolver:  Solving for nuTilda, Initial residual = 0.00773368, Final residual = 3.71936e-05, No Iterations 8
ExecutionTime = 2.51 s  ClockTime = 3 s

Time = 25

smoothSolver:  Solving for Ux, Initial residual = 0.00817177, Final residual = 3.17895e-05, No Iterations 8
smoothSolver:  Solving for Uy, Initial residual = 0.00823916, Final residual = 3.82243e-05, No Iterations 8
GAMG:  Solving for p, Initial residual = 0.0274224, Final residual = 0.000222308, No Iterations 5
time step continuity errors : sum local = 6.40101e-05, global = -9.11632e-17, cumulative = -7.22444e-17
smoothSolver:  Solving for nuTilda, Initial residual = 0.00733459, Final residual = 3.54392e-05, No Iterations 8
ExecutionTime = 2.6 s  ClockTime = 3 s

forces wings output:
    sum of forces:
        pressure : (4.09083 22.1417 -1.03998e-20)
        viscous  : (0.465583 -0.0324346 -9.31365e-23)
        porous   : (0 0 0)
    sum of moments:
        pressure : (-1.10708 0.204541 10.3261)
        viscous  : (0.00162173 0.0232792 -0.0412824)
        porous   : (0 0 0)

Time = 26

smoothSolver:  Solving for Ux, Initial residual = 0.00702864, Final residual = 2.7557e-05, No Iterations 8
smoothSolver:  Solving for Uy, Initial residual = 0.00463283, Final residual = 2.0966e-05, No Iterations 8
GAMG:  Solving for p, Initial residual = 0.024109, Final residual = 0.000200876, No Iterations 5
time step continuity errors : sum local = 5.8457e-05, global = 1.57579e-16, cumulative = 8.53347e-17
smoothSolver:  Solving for nuTilda, Initial residual = 0.00696017, Final residual = 3.37496e-05, No Iterations 8
ExecutionTime = 2.7 s  ClockTime = 3 s

Time = 27

smoothSolver:  Solving for Ux, Initial residual = 0.00603937, Final residual = 2.39741e-05, No Iterations 8
smoothSolver:  Solving for Uy, Initial residual = 0.0047931, Final residual = 2.17372e-05, No Iterations 8
GAMG:  Solving for p, Initial residual = 0.0205295, Final residual = 0.000177715, No Iterations 5
time step continuity errors : sum local = 5.15247e-05, global = 3.73251e-16, cumulative = 4.58586e-16
smoothSolver:  Solving for nuTilda, Initial residual = 0.00662539, Final residual = 3.22238e-05, No Iterations 8
ExecutionTime = 2.8 s  ClockTime = 3 s

Time = 28

smoothSolver:  Solving for Ux, Initial residual = 0.00586304, Final residual = 2.42718e-05, No Iterations 8
smoothSolver:  Solving for Uy, Initial residual = 0.00492679, Final residual = 2.25966e-05, No Iterations 8
GAMG:  Solving for p, Initial residual = 0.0183344, Final residual = 0.000148976, No Iterations 5
time step continuity errors : sum local = 4.26864e-05, global = 8.60814e-18, cumulative = 4.67194e-16
smoothSolver:  Solving for nuTilda, Initial residual = 0.00632205, Final residual = 3.07992e-05, No Iterations 8
bounding nuTilda, min: -0.000138826 max: 0.435035 average: 0.0853891
ExecutionTime = 2.9 s  ClockTime = 3 s

Time = 29

smoothSolver:  Solving for Ux, Initial residual = 0.00501357, Final residual = 2.0326e-05, No Iterations 8
smoothSolver:  Solving for Uy, Initial residual = 0.00335978, Final residual = 1.46328e-05, No Iterations 8
GAMG:  Solving for p, Initial residual = 0.0161219, Final residual = 7.3627e-05, No Iterations 5
time step continuity errors : sum local = 2.12369e-05, global = -2.62341e-17, cumulative = 4.4096e-16
smoothSolver:  Solving for nuTilda, Initial residual = 0.00605378, Final residual = 2.9519e-05, No Iterations 8
ExecutionTime = 2.99 s  ClockTime = 3 s

Time = 30

smoothSolver:  Solving for Ux, Initial residual = 0.0047412, Final residual = 1.82383e-05, No Iterations 8
smoothSolver:  Solving for Uy, Initial residual = 0.00384554, Final residual = 1.71808e-05, No Iterations 8
GAMG:  Solving for p, Initial residual = 0.014078, Final residual = 8.58551e-05, No Iterations 5
time step continuity errors : sum local = 2.45913e-05, global = 3.09576e-17, cumulative = 4.71917e-16
smoothSolver:  Solving for nuTilda, Initial residual = 0.00579294, Final residual = 2.8242e-05, No Iterations 8
bounding nuTilda, min: -0.00011752 max: 0.435159 average: 0.0835925
ExecutionTime = 3.08 s  ClockTime = 3 s

forces wings output:
    sum of forces:
        pressure : (3.3283 22.0101 4.12022e-21)
        viscous  : (0.452592 -0.0308311 -2.57596e-22)
        porous   : (0 0 0)
    sum of moments:
        pressure : (-1.10051 0.166415 8.87773)
        viscous  : (0.00154155 0.0226296 -0.0395299)
        porous   : (0 0 0)

Time = 31

smoothSolver:  Solving for Ux, Initial residual = 0.00498333, Final residual = 1.92268e-05, No Iterations 8
smoothSolver:  Solving for Uy, Initial residual = 0.00330097, Final residual = 1.5174e-05, No Iterations 8
GAMG:  Solving for p, Initial residual = 0.0126415, Final residual = 8.44151e-05, No Iterations 5
time step continuity errors : sum local = 2.42431e-05, global = -1.34317e-16, cumulative = 3.376e-16
smoothSolver:  Solving for nuTilda, Initial residual = 0.00555253, Final residual = 2.70878e-05, No Iterations 8
bounding nuTilda, min: -0.000121288 max: 0.43524 average: 0.0827303
ExecutionTime = 3.18 s  ClockTime = 3 s

Time = 32

smoothSolver:  Solving for Ux, Initial residual = 0.00468123, Final residual = 1.80123e-05, No Iterations 8
smoothSolver:  Solving for Uy, Initial residual = 0.00245856, Final residual = 1.11241e-05, No Iterations 8
GAMG:  Solving for p, Initial residual = 0.010927, Final residual = 0.000104102, No Iterations 4
time step continuity errors : sum local = 2.98367e-05, global = 4.32809e-17, cumulative = 3.80881e-16
smoothSolver:  Solving for nuTilda, Initial residual = 0.00531585, Final residual = 2.59223e-05, No Iterations 8
ExecutionTime = 3.27 s  ClockTime = 3 s

Time = 33

smoothSolver:  Solving for Ux, Initial residual = 0.00448443, Final residual = 1.75855e-05, No Iterations 8
smoothSolver:  Solving for Uy, Initial residual = 0.00252305, Final residual = 1.15131e-05, No Iterations 8
GAMG:  Solving for p, Initial residual = 0.0097557, Final residual = 6.69415e-05, No Iterations 5
time step continuity errors : sum local = 1.92126e-05, global = 1.18893e-16, cumulative = 4.99774e-16
smoothSolver:  Solving for nuTilda, Initial residual = 0.00510826, Final residual = 2.49172e-05, No Iterations 8
bounding nuTilda, min: -9.33872e-05 max: 0.435376 average: 0.0810669
ExecutionTime = 3.37 s  ClockTime = 3 s

Time = 34

smoothSolver:  Solving for Ux, Initial residual = 0.00425695, Final residual = 1.69759e-05, No Iterations 8
smoothSolver:  Solving for Uy, Initial residual = 0.00222699, Final residual = 1.03724e-05, No Iterations 8
GAMG:  Solving for p, Initial residual = 0.00871422, Final residual = 6.371e-05, No Iterations 5
time step continuity errors : sum local = 1.84548e-05, global = -1.8446e-16, cumulative = 3.15314e-16
smoothSolver:  Solving for nuTilda, Initial residual = 0.00490389, Final residual = 2.38926e-05, No Iterations 8
bounding nuTilda, min: -0.000236016 max: 0.435423 average: 0.0802631
ExecutionTime = 3.46 s  ClockTime = 4 s

Time = 35

smoothSolver:  Solving for Ux, Initial residual = 0.0039593, Final residual = 1.57405e-05, No Iterations 8
smoothSolver:  Solving for Uy, Initial residual = 0.00205112, Final residual = 9.34673e-06, No Iterations 8
GAMG:  Solving for p, Initial residual = 0.0078672, Final residual = 6.38271e-05, No Iterations 4
time step continuity errors : sum local = 1.84e-05, global = -1.08116e-16, cumulative = 2.07198e-16
smoothSolver:  Solving for nuTilda, Initial residual = 0.00472602, Final residual = 2.30142e-05, No Iterations 8
ExecutionTime = 3.54 s  ClockTime = 4 s

forces wings output:
    sum of forces:
        pressure : (2.03466 20.2954 1.38265e-20)
        viscous  : (0.439133 -0.0298121 -5.05543e-22)
        porous   : (0 0 0)
    sum of moments:
        pressure : (-1.01477 0.101733 6.24265)
        viscous  : (0.00149061 0.0219566 -0.0382819)
        porous   : (0 0 0)

Time = 36

smoothSolver:  Solving for Ux, Initial residual = 0.00387045, Final residual = 1.52578e-05, No Iterations 8
smoothSolver:  Solving for Uy, Initial residual = 0.00208209, Final residual = 9.56795e-06, No Iterations 8
GAMG:  Solving for p, Initial residual = 0.00723579, Final residual = 4.51196e-05, No Iterations 5
time step continuity errors : sum local = 1.28338e-05, global = 4.04514e-17, cumulative = 2.47649e-16
smoothSolver:  Solving for nuTilda, Initial residual = 0.00454869, Final residual = 2.21052e-05, No Iterations 8
bounding nuTilda, min: -0.000194534 max: 0.435477 average: 0.0787147
ExecutionTime = 3.64 s  ClockTime = 4 s

Time = 37

smoothSolver:  Solving for Ux, Initial residual = 0.00386705, Final residual = 1.52681e-05, No Iterations 8
smoothSolver:  Solving for Uy, Initial residual = 0.00176801, Final residual = 8.36281e-06, No Iterations 8
GAMG:  Solving for p, Initial residual = 0.0062757, Final residual = 3.46358e-05, No Iterations 5
time step continuity errors : sum local = 9.98546e-06, global = -4.03796e-17, cumulative = 2.0727e-16
smoothSolver:  Solving for nuTilda, Initial residual = 0.00438909, Final residual = 2.13109e-05, No Iterations 8
ExecutionTime = 3.74 s  ClockTime = 4 s

Time = 38

smoothSolver:  Solving for Ux, Initial residual = 0.00376977, Final residual = 1.5016e-05, No Iterations 8
smoothSolver:  Solving for Uy, Initial residual = 0.00163614, Final residual = 7.69892e-06, No Iterations 8
GAMG:  Solving for p, Initial residual = 0.00567099, Final residual = 4.83003e-05, No Iterations 4
time step continuity errors : sum local = 1.38349e-05, global = 1.02341e-16, cumulative = 3.0961e-16
smoothSolver:  Solving for nuTilda, Initial residual = 0.00423202, Final residual = 2.05027e-05, No Iterations 8
bounding nuTilda, min: -6.63236e-05 max: 0.435487 average: 0.0772361
ExecutionTime = 3.83 s  ClockTime = 4 s

Time = 39

smoothSolver:  Solving for Ux, Initial residual = 0.00366252, Final residual = 1.4748e-05, No Iterations 8
smoothSolver:  Solving for Uy, Initial residual = 0.00158528, Final residual = 7.58658e-06, No Iterations 8
GAMG:  Solving for p, Initial residual = 0.00548271, Final residual = 3.35841e-05, No Iterations 5
time step continuity errors : sum local = 9.6838e-06, global = -5.89939e-17, cumulative = 2.50616e-16
smoothSolver:  Solving for nuTilda, Initial residual = 0.00408889, Final residual = 1.9797e-05, No Iterations 8
ExecutionTime = 3.92 s  ClockTime = 4 s

Time = 40

smoothSolver:  Solving for Ux, Initial residual = 0.00354354, Final residual = 1.43417e-05, No Iterations 8
smoothSolver:  Solving for Uy, Initial residual = 0.00151536, Final residual = 7.35408e-06, No Iterations 8
GAMG:  Solving for p, Initial residual = 0.00509044, Final residual = 4.1305e-05, No Iterations 4
time step continuity errors : sum local = 1.1855e-05, global = 2.75129e-17, cumulative = 2.78129e-16
smoothSolver:  Solving for nuTilda, Initial residual = 0.0039481, Final residual = 1.90875e-05, No Iterations 8
bounding nuTilda, min: -8.80194e-05 max: 0.435469 average: 0.0758216
ExecutionTime = 4.02 s  ClockTime = 4 s

forces wings output:
    sum of forces:
        pressure : (1.43 19.5567 1.83988e-20)
        viscous  : (0.427211 -0.0290595 -7.49898e-22)
        porous   : (0 0 0)
    sum of moments:
        pressure : (-0.977834 0.0715001 5.01847)
        viscous  : (0.00145298 0.0213606 -0.037297)
        porous   : (0 0 0)

Time = 41

smoothSolver:  Solving for Ux, Initial residual = 0.00344329, Final residual = 1.39173e-05, No Iterations 8
smoothSolver:  Solving for Uy, Initial residual = 0.00152225, Final residual = 7.32605e-06, No Iterations 8
GAMG:  Solving for p, Initial residual = 0.00461463, Final residual = 3.84042e-05, No Iterations 4
time step continuity errors : sum local = 1.10157e-05, global = -6.72621e-17, cumulative = 2.10867e-16
smoothSolver:  Solving for nuTilda, Initial residual = 0.00381735, Final residual = 1.84538e-05, No Iterations 8
ExecutionTime = 4.11 s  ClockTime = 4 s

Time = 42

smoothSolver:  Solving for Ux, Initial residual = 0.00338272, Final residual = 1.36761e-05, No Iterations 8
smoothSolver:  Solving for Uy, Initial residual = 0.00145161, Final residual = 7.08234e-06, No Iterations 8
GAMG:  Solving for p, Initial residual = 0.00437561, Final residual = 3.86723e-05, No Iterations 4
time step continuity errors : sum local = 1.1146e-05, global = 2.30462e-17, cumulative = 2.33913e-16
smoothSolver:  Solving for nuTilda, Initial residual = 0.00368781, Final residual = 1.78247e-05, No Iterations 8
bounding nuTilda, min: -0.000106232 max: 0.435443 average: 0.0744663
ExecutionTime = 4.19 s  ClockTime = 4 s

Time = 43

smoothSolver:  Solving for Ux, Initial residual = 0.00333113, Final residual = 1.35417e-05, No Iterations 8
smoothSolver:  Solving for Uy, Initial residual = 0.00139753, Final residual = 6.95446e-06, No Iterations 8
GAMG:  Solving for p, Initial residual = 0.0042837, Final residual = 4.0133e-05, No Iterations 4
time step continuity errors : sum local = 1.15237e-05, global = 8.68523e-17, cumulative = 3.20766e-16
smoothSolver:  Solving for nuTilda, Initial residual = 0.00356646, Final residual = 1.72517e-05, No Iterations 8
ExecutionTime = 4.28 s  ClockTime = 4 s

Time = 44

smoothSolver:  Solving for Ux, Initial residual = 0.00326064, Final residual = 1.33689e-05, No Iterations 8
smoothSolver:  Solving for Uy, Initial residual = 0.00136455, Final residual = 6.90352e-06, No Iterations 8
GAMG:  Solving for p, Initial residual = 0.00408536, Final residual = 3.19914e-05, No Iterations 4
time step continuity errors : sum local = 9.17477e-06, global = 9.07774e-17, cumulative = 4.11543e-16
smoothSolver:  Solving for nuTilda, Initial residual = 0.00345003, Final residual = 1.66917e-05, No Iterations 8
bounding nuTilda, min: -0.000120151 max: 0.435422 average: 0.0731664
ExecutionTime = 4.37 s  ClockTime = 4 s

Time = 45

smoothSolver:  Solving for Ux, Initial residual = 0.00318837, Final residual = 1.31587e-05, No Iterations 8
smoothSolver:  Solving for Uy, Initial residual = 0.00133328, Final residual = 6.79615e-06, No Iterations 8
GAMG:  Solving for p, Initial residual = 0.00383741, Final residual = 3.01056e-05, No Iterations 4
time step continuity errors : sum local = 8.63723e-06, global = -2.92874e-16, cumulative = 1.18669e-16
smoothSolver:  Solving for nuTilda, Initial residual = 0.00334241, Final residual = 1.61705e-05, No Iterations 8
ExecutionTime = 4.46 s  ClockTime = 5 s

forces wings output:
    sum of forces:
        pressure : (1.38051 19.6754 2.07779e-20)
        viscous  : (0.414979 -0.0281995 -1.02098e-21)
        porous   : (0 0 0)
    sum of moments:
        pressure : (-0.98377 0.0690253 4.93962)
        viscous  : (0.00140998 0.020749 -0.0362568)
        porous   : (0 0 0)

Time = 46

smoothSolver:  Solving for Ux, Initial residual = 0.00312047, Final residual = 1.29316e-05, No Iterations 8
smoothSolver:  Solving for Uy, Initial residual = 0.00133324, Final residual = 6.7998e-06, No Iterations 8
GAMG:  Solving for p, Initial residual = 0.00368268, Final residual = 2.57943e-05, No Iterations 4
time step continuity errors : sum local = 7.3833e-06, global = 4.78175e-17, cumulative = 1.66487e-16
smoothSolver:  Solving for nuTilda, Initial residual = 0.0032399, Final residual = 1.56618e-05, No Iterations 8
bounding nuTilda, min: -0.000131257 max: 0.435406 average: 0.071918
ExecutionTime = 4.55 s  ClockTime = 5 s

Time = 47

smoothSolver:  Solving for Ux, Initial residual = 0.00306201, Final residual = 1.27177e-05, No Iterations 8
smoothSolver:  Solving for Uy, Initial residual = 0.00131552, Final residual = 6.76696e-06, No Iterations 8
GAMG:  Solving for p, Initial residual = 0.00363741, Final residual = 2.67815e-05, No Iterations 4
time step continuity errors : sum local = 7.68452e-06, global = -2.50644e-17, cumulative = 1.41422e-16
smoothSolver:  Solving for nuTilda, Initial residual = 0.00314168, Final residual = 1.51817e-05, No Iterations 8
ExecutionTime = 4.64 s  ClockTime = 5 s

Time = 48

smoothSolver:  Solving for Ux, Initial residual = 0.00301223, Final residual = 1.25481e-05, No Iterations 8
smoothSolver:  Solving for Uy, Initial residual = 0.00129227, Final residual = 6.71448e-06, No Iterations 8
GAMG:  Solving for p, Initial residual = 0.00353328, Final residual = 2.7906e-05, No Iterations 4
time step continuity errors : sum local = 8.01326e-06, global = -7.45756e-17, cumulative = 6.68467e-17
smoothSolver:  Solving for nuTilda, Initial residual = 0.00304888, Final residual = 1.47189e-05, No Iterations 8
bounding nuTilda, min: -0.000139638 max: 0.435388 average: 0.0707178
ExecutionTime = 4.73 s  ClockTime = 5 s

Time = 49

smoothSolver:  Solving for Ux, Initial residual = 0.00296357, Final residual = 1.24038e-05, No Iterations 8
smoothSolver:  Solving for Uy, Initial residual = 0.0012921, Final residual = 6.74502e-06, No Iterations 8
GAMG:  Solving for p, Initial residual = 0.00341208, Final residual = 3.22384e-05, No Iterations 4
time step continuity errors : sum local = 9.22546e-06, global = -1.54904e-16, cumulative = -8.80575e-17
smoothSolver:  Solving for nuTilda, Initial residual = 0.00296035, Final residual = 1.42786e-05, No Iterations 8
ExecutionTime = 4.81 s  ClockTime = 5 s

Time = 50

smoothSolver:  Solving for Ux, Initial residual = 0.00291184, Final residual = 1.2252e-05, No Iterations 8
smoothSolver:  Solving for Uy, Initial residual = 0.00129204, Final residual = 6.76295e-06, No Iterations 8
GAMG:  Solving for p, Initial residual = 0.00328208, Final residual = 2.90912e-05, No Iterations 4
time step continuity errors : sum local = 8.32257e-06, global = 1.60008e-16, cumulative = 7.19502e-17
smoothSolver:  Solving for nuTilda, Initial residual = 0.00287388, Final residual = 1.38519e-05, No Iterations 8
bounding nuTilda, min: -0.000145101 max: 0.435368 average: 0.069563
ExecutionTime = 4.89 s  ClockTime = 5 s

forces wings output:
    sum of forces:
        pressure : (1.45469 19.9941 2.30538e-20)
        viscous  : (0.403808 -0.0274001 -1.34046e-21)
        porous   : (0 0 0)
    sum of moments:
        pressure : (-0.999705 0.0727347 5.11702)
        viscous  : (0.00137 0.0201904 -0.0352897)
        porous   : (0 0 0)

Time = 51

smoothSolver:  Solving for Ux, Initial residual = 0.00286206, Final residual = 1.20931e-05, No Iterations 8
smoothSolver:  Solving for Uy, Initial residual = 0.0012867, Final residual = 6.76099e-06, No Iterations 8
GAMG:  Solving for p, Initial residual = 0.0031532, Final residual = 2.52103e-05, No Iterations 4
time step continuity errors : sum local = 7.23364e-06, global = -5.57629e-17, cumulative = 1.61873e-17
smoothSolver:  Solving for nuTilda, Initial residual = 0.00279137, Final residual = 1.34462e-05, No Iterations 8
ExecutionTime = 4.98 s  ClockTime = 5 s

Time = 52

smoothSolver:  Solving for Ux, Initial residual = 0.00281558, Final residual = 1.19392e-05, No Iterations 8
smoothSolver:  Solving for Uy, Initial residual = 0.00127449, Final residual = 6.73404e-06, No Iterations 8
GAMG:  Solving for p, Initial residual = 0.00307547, Final residual = 2.55165e-05, No Iterations 4
time step continuity errors : sum local = 7.32579e-06, global = -1.20166e-16, cumulative = -1.03979e-16
smoothSolver:  Solving for nuTilda, Initial residual = 0.00271268, Final residual = 1.30589e-05, No Iterations 8
bounding nuTilda, min: -0.00014882 max: 0.435348 average: 0.0684507
ExecutionTime = 5.06 s  ClockTime = 5 s

Time = 53

smoothSolver:  Solving for Ux, Initial residual = 0.00277153, Final residual = 1.1789e-05, No Iterations 8
smoothSolver:  Solving for Uy, Initial residual = 0.00126113, Final residual = 6.70438e-06, No Iterations 8
GAMG:  Solving for p, Initial residual = 0.00300152, Final residual = 2.60551e-05, No Iterations 4
time step continuity errors : sum local = 7.47798e-06, global = 7.88623e-17, cumulative = -2.51165e-17
smoothSolver:  Solving for nuTilda, Initial residual = 0.00263753, Final residual = 1.26846e-05, No Iterations 8
ExecutionTime = 5.15 s  ClockTime = 5 s

Time = 54

smoothSolver:  Solving for Ux, Initial residual = 0.00273057, Final residual = 1.1643e-05, No Iterations 8
smoothSolver:  Solving for Uy, Initial residual = 0.00125406, Final residual = 6.69196e-06, No Iterations 8
GAMG:  Solving for p, Initial residual = 0.00290584, Final residual = 2.51847e-05, No Iterations 4
time step continuity errors : sum local = 7.23305e-06, global = 1.30511e-16, cumulative = 1.05395e-16
smoothSolver:  Solving for nuTilda, Initial residual = 0.00256469, Final residual = 1.23259e-05, No Iterations 8
bounding nuTilda, min: -0.000150946 max: 0.435331 average: 0.0673787
ExecutionTime = 5.23 s  ClockTime = 5 s

Time = 55

smoothSolver:  Solving for Ux, Initial residual = 0.00269219, Final residual = 1.14996e-05, No Iterations 8
smoothSolver:  Solving for Uy, Initial residual = 0.00125184, Final residual = 6.69712e-06, No Iterations 8
GAMG:  Solving for p, Initial residual = 0.00283515, Final residual = 2.6671e-05, No Iterations 4
time step continuity errors : sum local = 7.64164e-06, global = 2.74283e-16, cumulative = 3.79678e-16
smoothSolver:  Solving for nuTilda, Initial residual = 0.00249471, Final residual = 1.19787e-05, No Iterations 8
ExecutionTime = 5.32 s  ClockTime = 5 s

forces wings output:
    sum of forces:
        pressure : (1.44279 20.2964 2.61105e-20)
        viscous  : (0.392975 -0.0265676 -1.53447e-21)
        porous   : (0 0 0)
    sum of moments:
        pressure : (-1.01482 0.0721397 5.1307)
        viscous  : (0.00132838 0.0196488 -0.0343337)
        porous   : (0 0 0)

Time = 56

smoothSolver:  Solving for Ux, Initial residual = 0.00265381, Final residual = 1.13538e-05, No Iterations 8
smoothSolver:  Solving for Uy, Initial residual = 0.00124981, Final residual = 6.70252e-06, No Iterations 8
GAMG:  Solving for p, Initial residual = 0.00278319, Final residual = 2.21685e-05, No Iterations 4
time step continuity errors : sum local = 6.33375e-06, global = -1.54405e-16, cumulative = 2.25273e-16
smoothSolver:  Solving for nuTilda, Initial residual = 0.00242741, Final residual = 1.16466e-05, No Iterations 8
bounding nuTilda, min: -0.000151462 max: 0.435314 average: 0.0663447
ExecutionTime = 5.41 s  ClockTime = 6 s

Time = 57

smoothSolver:  Solving for Ux, Initial residual = 0.00261548, Final residual = 1.12117e-05, No Iterations 8
smoothSolver:  Solving for Uy, Initial residual = 0.00124756, Final residual = 6.7033e-06, No Iterations 8
GAMG:  Solving for p, Initial residual = 0.00272181, Final residual = 2.25934e-05, No Iterations 4
time step continuity errors : sum local = 6.45589e-06, global = -1.78755e-16, cumulative = 4.65173e-17
smoothSolver:  Solving for nuTilda, Initial residual = 0.00236358, Final residual = 1.13279e-05, No Iterations 8
ExecutionTime = 5.5 s  ClockTime = 6 s

Time = 58

smoothSolver:  Solving for Ux, Initial residual = 0.00257901, Final residual = 1.10764e-05, No Iterations 8
smoothSolver:  Solving for Uy, Initial residual = 0.00124246, Final residual = 6.68367e-06, No Iterations 8
GAMG:  Solving for p, Initial residual = 0.00266644, Final residual = 2.48309e-05, No Iterations 4
time step continuity errors : sum local = 7.10207e-06, global = 7.84911e-17, cumulative = 1.25008e-16
smoothSolver:  Solving for nuTilda, Initial residual = 0.00230269, Final residual = 1.10232e-05, No Iterations 8
bounding nuTilda, min: -0.000150859 max: 0.435297 average: 0.0653465
ExecutionTime = 5.58 s  ClockTime = 6 s

Time = 59

smoothSolver:  Solving for Ux, Initial residual = 0.00254502, Final residual = 1.09492e-05, No Iterations 8
smoothSolver:  Solving for Uy, Initial residual = 0.00123455, Final residual = 6.65221e-06, No Iterations 8
GAMG:  Solving for p, Initial residual = 0.00259691, Final residual = 2.58567e-05, No Iterations 4
time step continuity errors : sum local = 7.40243e-06, global = 8.23498e-17, cumulative = 2.07358e-16
smoothSolver:  Solving for nuTilda, Initial residual = 0.00224441, Final residual = 1.07282e-05, No Iterations 8
ExecutionTime = 5.66 s  ClockTime = 6 s

Time = 60

smoothSolver:  Solving for Ux, Initial residual = 0.00251291, Final residual = 1.08277e-05, No Iterations 8
smoothSolver:  Solving for Uy, Initial residual = 0.0012279, Final residual = 6.62957e-06, No Iterations 8
GAMG:  Solving for p, Initial residual = 0.0025272, Final residual = 1.6153e-05, No Iterations 5
time step continuity errors : sum local = 4.6304e-06, global = 4.4546e-17, cumulative = 2.51904e-16
smoothSolver:  Solving for nuTilda, Initial residual = 0.00218826, Final residual = 1.0444e-05, No Iterations 8
bounding nuTilda, min: -0.000151311 max: 0.435281 average: 0.0643824
ExecutionTime = 5.75 s  ClockTime = 6 s

forces wings output:
    sum of forces:
        pressure : (1.43465 20.6739 2.78037e-20)
        viscous  : (0.382644 -0.0257547 -1.67196e-21)
        porous   : (0 0 0)
    sum of moments:
        pressure : (-1.0337 0.0717325 5.1604)
        viscous  : (0.00128774 0.0191322 -0.0334191)
        porous   : (0 0 0)

Time = 61

smoothSolver:  Solving for Ux, Initial residual = 0.00248338, Final residual = 1.07131e-05, No Iterations 8
smoothSolver:  Solving for Uy, Initial residual = 0.00122405, Final residual = 6.62204e-06, No Iterations 8
GAMG:  Solving for p, Initial residual = 0.00246459, Final residual = 1.96304e-05, No Iterations 4
time step continuity errors : sum local = 5.61568e-06, global = -5.66126e-17, cumulative = 1.95292e-16
smoothSolver:  Solving for nuTilda, Initial residual = 0.00213347, Final residual = 1.01694e-05, No Iterations 8
ExecutionTime = 5.84 s  ClockTime = 6 s

Time = 62

smoothSolver:  Solving for Ux, Initial residual = 0.00245381, Final residual = 1.05916e-05, No Iterations 8
smoothSolver:  Solving for Uy, Initial residual = 0.00122215, Final residual = 6.62089e-06, No Iterations 8
GAMG:  Solving for p, Initial residual = 0.00240499, Final residual = 2.19575e-05, No Iterations 4
time step continuity errors : sum local = 6.26911e-06, global = -1.15769e-16, cumulative = 7.95226e-17
smoothSolver:  Solving for nuTilda, Initial residual = 0.00208022, Final residual = 9.90407e-06, No Iterations 8
bounding nuTilda, min: -0.000154154 max: 0.435265 average: 0.0634506
ExecutionTime = 5.93 s  ClockTime = 6 s

Time = 63

smoothSolver:  Solving for Ux, Initial residual = 0.00242468, Final residual = 1.04695e-05, No Iterations 8
smoothSolver:  Solving for Uy, Initial residual = 0.0012202, Final residual = 6.61515e-06, No Iterations 8
GAMG:  Solving for p, Initial residual = 0.00235054, Final residual = 2.03639e-05, No Iterations 4
time step continuity errors : sum local = 5.82602e-06, global = 5.2284e-17, cumulative = 1.31807e-16
smoothSolver:  Solving for nuTilda, Initial residual = 0.00202883, Final residual = 9.64733e-06, No Iterations 8
ExecutionTime = 6.01 s  ClockTime = 6 s

Time = 64

smoothSolver:  Solving for Ux, Initial residual = 0.00239499, Final residual = 1.03445e-05, No Iterations 8
smoothSolver:  Solving for Uy, Initial residual = 0.00121806, Final residual = 6.60499e-06, No Iterations 8
GAMG:  Solving for p, Initial residual = 0.00229606, Final residual = 2.11562e-05, No Iterations 4
time step continuity errors : sum local = 6.05341e-06, global = -1.55129e-16, cumulative = -2.33223e-17
smoothSolver:  Solving for nuTilda, Initial residual = 0.00197879, Final residual = 9.39956e-06, No Iterations 8
bounding nuTilda, min: -0.000157095 max: 0.435251 average: 0.0625496
ExecutionTime = 6.09 s  ClockTime = 6 s

Time = 65

smoothSolver:  Solving for Ux, Initial residual = 0.00236737, Final residual = 1.02286e-05, No Iterations 8
smoothSolver:  Solving for Uy, Initial residual = 0.00121387, Final residual = 6.58497e-06, No Iterations 8
GAMG:  Solving for p, Initial residual = 0.0022425, Final residual = 2.14116e-05, No Iterations 4
time step continuity errors : sum local = 6.13241e-06, global = 6.92859e-17, cumulative = 4.59636e-17
smoothSolver:  Solving for nuTilda, Initial residual = 0.00193045, Final residual = 9.1604e-06, No Iterations 8
ExecutionTime = 6.18 s  ClockTime = 6 s

forces wings output:
    sum of forces:
        pressure : (1.45162 21.0361 2.86471e-20)
        viscous  : (0.372858 -0.0249491 -1.80517e-21)
        porous   : (0 0 0)
    sum of moments:
        pressure : (-1.0518 0.0725812 5.23548)
        viscous  : (0.00124745 0.0186429 -0.0325464)
        porous   : (0 0 0)

Time = 66

smoothSolver:  Solving for Ux, Initial residual = 0.00234214, Final residual = 1.01225e-05, No Iterations 8
smoothSolver:  Solving for Uy, Initial residual = 0.00120867, Final residual = 6.55975e-06, No Iterations 8
GAMG:  Solving for p, Initial residual = 0.00218856, Final residual = 9.11217e-06, No Iterations 5
time step continuity errors : sum local = 2.6096e-06, global = 1.25211e-16, cumulative = 1.71174e-16
smoothSolver:  Solving for nuTilda, Initial residual = 0.00188383, Final residual = 8.92778e-06, No Iterations 8
bounding nuTilda, min: -0.000159643 max: 0.435236 average: 0.0616778
ExecutionTime = 6.27 s  ClockTime = 6 s

Time = 67

smoothSolver:  Solving for Ux, Initial residual = 0.00231842, Final residual = 1.00224e-05, No Iterations 8
smoothSolver:  Solving for Uy, Initial residual = 0.00120375, Final residual = 6.5349e-06, No Iterations 8
GAMG:  Solving for p, Initial residual = 0.0021367, Final residual = 8.85112e-06, No Iterations 5
time step continuity errors : sum local = 2.53694e-06, global = 3.70507e-17, cumulative = 2.08225e-16
smoothSolver:  Solving for nuTilda, Initial residual = 0.00183903, Final residual = 8.70371e-06, No Iterations 8
ExecutionTime = 6.36 s  ClockTime = 6 s

Time = 68

smoothSolver:  Solving for Ux, Initial residual = 0.00229386, Final residual = 9.91518e-06, No Iterations 8
smoothSolver:  Solving for Uy, Initial residual = 0.00120191, Final residual = 6.52275e-06, No Iterations 8
GAMG:  Solving for p, Initial residual = 0.00208634, Final residual = 8.82355e-06, No Iterations 5
time step continuity errors : sum local = 2.52977e-06, global = 4.17349e-17, cumulative = 2.4996e-16
smoothSolver:  Solving for nuTilda, Initial residual = 0.00179589, Final residual = 8.48878e-06, No Iterations 8
bounding nuTilda, min: -0.000162439 max: 0.435222 average: 0.0608337
ExecutionTime = 6.45 s  ClockTime = 7 s

Time = 69

smoothSolver:  Solving for Ux, Initial residual = 0.00226918, Final residual = 9.80441e-06, No Iterations 8
smoothSolver:  Solving for Uy, Initial residual = 0.00120166, Final residual = 6.51634e-06, No Iterations 8
GAMG:  Solving for p, Initial residual = 0.00204227, Final residual = 9.04975e-06, No Iterations 5
time step continuity errors : sum local = 2.59319e-06, global = 1.40886e-16, cumulative = 3.90846e-16
smoothSolver:  Solving for nuTilda, Initial residual = 0.0017544, Final residual = 8.28155e-06, No Iterations 8
ExecutionTime = 6.53 s  ClockTime = 7 s

Time = 70

smoothSolver:  Solving for Ux, Initial residual = 0.00224584, Final residual = 9.69908e-06, No Iterations 8
smoothSolver:  Solving for Uy, Initial residual = 0.00120054, Final residual = 6.50455e-06, No Iterations 8
GAMG:  Solving for p, Initial residual = 0.00199937, Final residual = 9.28309e-06, No Iterations 5
time step continuity errors : sum local = 2.65951e-06, global = -1.12605e-16, cumulative = 2.7824e-16
smoothSolver:  Solving for nuTilda, Initial residual = 0.00171435, Final residual = 8.08146e-06, No Iterations 8
bounding nuTilda, min: -0.000165498 max: 0.435208 average: 0.060016
ExecutionTime = 6.61 s  ClockTime = 7 s

forces wings output:
    sum of forces:
        pressure : (1.46358 21.4079 2.89178e-20)
        viscous  : (0.363571 -0.0241496 -1.89749e-21)
        porous   : (0 0 0)
    sum of moments:
        pressure : (-1.0704 0.0731788 5.30226)
        viscous  : (0.00120748 0.0181786 -0.0317136)
        porous   : (0 0 0)

Time = 71

smoothSolver:  Solving for Ux, Initial residual = 0.00222464, Final residual = 9.60324e-06, No Iterations 8
smoothSolver:  Solving for Uy, Initial residual = 0.00119728, Final residual = 6.48234e-06, No Iterations 8
GAMG:  Solving for p, Initial residual = 0.00196137, Final residual = 9.33708e-06, No Iterations 5
time step continuity errors : sum local = 2.67669e-06, global = -1.19428e-16, cumulative = 1.58812e-16
smoothSolver:  Solving for nuTilda, Initial residual = 0.00167556, Final residual = 7.88763e-06, No Iterations 8
ExecutionTime = 6.7 s  ClockTime = 7 s

Time = 72

smoothSolver:  Solving for Ux, Initial residual = 0.00220486, Final residual = 9.5132e-06, No Iterations 8
smoothSolver:  Solving for Uy, Initial residual = 0.00119286, Final residual = 6.45433e-06, No Iterations 8
GAMG:  Solving for p, Initial residual = 0.00192204, Final residual = 9.42032e-06, No Iterations 5
time step continuity errors : sum local = 2.70347e-06, global = 1.07231e-17, cumulative = 1.69535e-16
smoothSolver:  Solving for nuTilda, Initial residual = 0.00163806, Final residual = 7.69943e-06, No Iterations 8
bounding nuTilda, min: -0.000168559 max: 0.435195 average: 0.0592235
ExecutionTime = 6.79 s  ClockTime = 7 s

Time = 73

smoothSolver:  Solving for Ux, Initial residual = 0.00218533, Final residual = 9.42345e-06, No Iterations 8
smoothSolver:  Solving for Uy, Initial residual = 0.00118923, Final residual = 6.42923e-06, No Iterations 8
GAMG:  Solving for p, Initial residual = 0.00188633, Final residual = 9.85662e-06, No Iterations 5
time step continuity errors : sum local = 2.82822e-06, global = -1.5676e-16, cumulative = 1.27748e-17
smoothSolver:  Solving for nuTilda, Initial residual = 0.00160169, Final residual = 7.51699e-06, No Iterations 8
ExecutionTime = 6.88 s  ClockTime = 7 s

Time = 74

smoothSolver:  Solving for Ux, Initial residual = 0.00216568, Final residual = 9.3323e-06, No Iterations 8
smoothSolver:  Solving for Uy, Initial residual = 0.00118699, Final residual = 6.41001e-06, No Iterations 8
GAMG:  Solving for p, Initial residual = 0.0018495, Final residual = 1.07194e-05, No Iterations 5
time step continuity errors : sum local = 3.06574e-06, global = 9.72595e-17, cumulative = 1.10034e-16
smoothSolver:  Solving for nuTilda, Initial residual = 0.00156644, Final residual = 7.3403e-06, No Iterations 8
bounding nuTilda, min: -0.000171822 max: 0.435181 average: 0.058455
ExecutionTime = 6.96 s  ClockTime = 7 s

Time = 75

smoothSolver:  Solving for Ux, Initial residual = 0.00214649, Final residual = 9.24175e-06, No Iterations 8
smoothSolver:  Solving for Uy, Initial residual = 0.00118547, Final residual = 6.39289e-06, No Iterations 8
GAMG:  Solving for p, Initial residual = 0.00181804, Final residual = 9.61718e-06, No Iterations 5
time step continuity errors : sum local = 2.76044e-06, global = -1.20045e-16, cumulative = -1.00108e-17
smoothSolver:  Solving for nuTilda, Initial residual = 0.00153244, Final residual = 7.16988e-06, No Iterations 8
ExecutionTime = 7.05 s  ClockTime = 7 s

forces wings output:
    sum of forces:
        pressure : (1.47186 21.8126 2.90512e-20)
        viscous  : (0.354777 -0.0233554 -1.97419e-21)
        porous   : (0 0 0)
    sum of moments:
        pressure : (-1.09063 0.0735929 5.36607)
        viscous  : (0.00116777 0.0177388 -0.0309201)
        porous   : (0 0 0)

Time = 76

smoothSolver:  Solving for Ux, Initial residual = 0.00212798, Final residual = 9.15336e-06, No Iterations 8
smoothSolver:  Solving for Uy, Initial residual = 0.00118429, Final residual = 6.37626e-06, No Iterations 8
GAMG:  Solving for p, Initial residual = 0.001786, Final residual = 9.73375e-06, No Iterations 5
time step continuity errors : sum local = 2.79598e-06, global = 3.77344e-17, cumulative = 2.77236e-17
smoothSolver:  Solving for nuTilda, Initial residual = 0.00149926, Final residual = 7.00354e-06, No Iterations 8
bounding nuTilda, min: -0.000175231 max: 0.435168 average: 0.0577096
ExecutionTime = 7.14 s  ClockTime = 7 s

Time = 77

smoothSolver:  Solving for Ux, Initial residual = 0.00211083, Final residual = 9.07162e-06, No Iterations 8
smoothSolver:  Solving for Uy, Initial residual = 0.00118135, Final residual = 6.35152e-06, No Iterations 8
GAMG:  Solving for p, Initial residual = 0.00176085, Final residual = 1.02136e-05, No Iterations 5
time step continuity errors : sum local = 2.93618e-06, global = -3.73683e-16, cumulative = -3.45959e-16
smoothSolver:  Solving for nuTilda, Initial residual = 0.00146706, Final residual = 6.84101e-06, No Iterations 8
ExecutionTime = 7.22 s  ClockTime = 7 s

Time = 78

smoothSolver:  Solving for Ux, Initial residual = 0.00209478, Final residual = 8.9947e-06, No Iterations 8
smoothSolver:  Solving for Uy, Initial residual = 0.00117704, Final residual = 6.32078e-06, No Iterations 8
GAMG:  Solving for p, Initial residual = 0.00173423, Final residual = 1.12566e-05, No Iterations 5
time step continuity errors : sum local = 3.21938e-06, global = 4.9214e-17, cumulative = -2.96745e-16
smoothSolver:  Solving for nuTilda, Initial residual = 0.00143605, Final residual = 6.68448e-06, No Iterations 8
bounding nuTilda, min: -0.00017854 max: 0.435154 average: 0.0569861
ExecutionTime = 7.31 s  ClockTime = 7 s

Time = 79

smoothSolver:  Solving for Ux, Initial residual = 0.00207902, Final residual = 8.9185e-06, No Iterations 8
smoothSolver:  Solving for Uy, Initial residual = 0.00117299, Final residual = 6.29082e-06, No Iterations 8
GAMG:  Solving for p, Initial residual = 0.00171293, Final residual = 1.04643e-05, No Iterations 5
time step continuity errors : sum local = 3.01004e-06, global = -1.40118e-16, cumulative = -4.36864e-16
smoothSolver:  Solving for nuTilda, Initial residual = 0.00140585, Final residual = 6.53379e-06, No Iterations 8
ExecutionTime = 7.4 s  ClockTime = 8 s

Time = 80

smoothSolver:  Solving for Ux, Initial residual = 0.00206275, Final residual = 8.83982e-06, No Iterations 8
smoothSolver:  Solving for Uy, Initial residual = 0.00117087, Final residual = 6.26898e-06, No Iterations 8
GAMG:  Solving for p, Initial residual = 0.00168972, Final residual = 1.07952e-05, No Iterations 5
time step continuity errors : sum local = 3.10469e-06, global = -1.16434e-16, cumulative = -5.53297e-16
smoothSolver:  Solving for nuTilda, Initial residual = 0.00137599, Final residual = 6.38581e-06, No Iterations 8
bounding nuTilda, min: -0.00018178 max: 0.43514 average: 0.0562838
ExecutionTime = 7.48 s  ClockTime = 8 s

forces wings output:
    sum of forces:
        pressure : (1.47988 22.2427 2.90608e-20)
        viscous  : (0.34648 -0.0225612 -2.04704e-21)
        porous   : (0 0 0)
    sum of moments:
        pressure : (-1.11214 0.0739942 5.43243)
        viscous  : (0.00112806 0.017324 -0.0301667)
        porous   : (0 0 0)

Time = 81

smoothSolver:  Solving for Ux, Initial residual = 0.00204688, Final residual = 8.76317e-06, No Iterations 8
smoothSolver:  Solving for Uy, Initial residual = 0.00116871, Final residual = 6.24649e-06, No Iterations 8
GAMG:  Solving for p, Initial residual = 0.00167201, Final residual = 1.16078e-05, No Iterations 5
time step continuity errors : sum local = 3.32642e-06, global = 1.04357e-16, cumulative = -4.48941e-16
smoothSolver:  Solving for nuTilda, Initial residual = 0.00134699, Final residual = 6.24298e-06, No Iterations 8
ExecutionTime = 7.58 s  ClockTime = 8 s

Time = 82

smoothSolver:  Solving for Ux, Initial residual = 0.00203193, Final residual = 8.69084e-06, No Iterations 8
smoothSolver:  Solving for Uy, Initial residual = 0.00116531, Final residual = 6.21834e-06, No Iterations 8
GAMG:  Solving for p, Initial residual = 0.0016539, Final residual = 1.03468e-05, No Iterations 5
time step continuity errors : sum local = 2.98092e-06, global = -3.66636e-17, cumulative = -4.85604e-16
smoothSolver:  Solving for nuTilda, Initial residual = 0.00131864, Final residual = 6.10237e-06, No Iterations 8
bounding nuTilda, min: -0.000184736 max: 0.435126 average: 0.0556018
ExecutionTime = 7.67 s  ClockTime = 8 s

Time = 83

smoothSolver:  Solving for Ux, Initial residual = 0.00201735, Final residual = 8.61979e-06, No Iterations 8
smoothSolver:  Solving for Uy, Initial residual = 0.00116192, Final residual = 6.1895e-06, No Iterations 8
GAMG:  Solving for p, Initial residual = 0.00164132, Final residual = 1.09539e-05, No Iterations 5
time step continuity errors : sum local = 3.15572e-06, global = 1.32267e-17, cumulative = -4.72378e-16
smoothSolver:  Solving for nuTilda, Initial residual = 0.00129087, Final residual = 5.96323e-06, No Iterations 8
ExecutionTime = 7.75 s  ClockTime = 8 s

Time = 84

smoothSolver:  Solving for Ux, Initial residual = 0.00200347, Final residual = 8.5518e-06, No Iterations 8
smoothSolver:  Solving for Uy, Initial residual = 0.00115739, Final residual = 6.15606e-06, No Iterations 8
GAMG:  Solving for p, Initial residual = 0.00162755, Final residual = 1.18931e-05, No Iterations 5
time step continuity errors : sum local = 3.40914e-06, global = -6.75034e-17, cumulative = -5.39881e-16
smoothSolver:  Solving for nuTilda, Initial residual = 0.00126393, Final residual = 5.8268e-06, No Iterations 8
bounding nuTilda, min: -0.000187253 max: 0.435111 average: 0.0549392
ExecutionTime = 7.85 s  ClockTime = 8 s

Time = 85

smoothSolver:  Solving for Ux, Initial residual = 0.00198986, Final residual = 8.48499e-06, No Iterations 8
smoothSolver:  Solving for Uy, Initial residual = 0.00115274, Final residual = 6.1218e-06, No Iterations 8
GAMG:  Solving for p, Initial residual = 0.00161747, Final residual = 1.1131e-05, No Iterations 5
time step continuity errors : sum local = 3.20937e-06, global = 1.16807e-16, cumulative = -4.23074e-16
smoothSolver:  Solving for nuTilda, Initial residual = 0.00123785, Final residual = 5.69462e-06, No Iterations 8
ExecutionTime = 7.93 s  ClockTime = 8 s

forces wings output:
    sum of forces:
        pressure : (1.48695 22.6892 2.87984e-20)
        viscous  : (0.338745 -0.0217722 -2.10906e-21)
        porous   : (0 0 0)
    sum of moments:
        pressure : (-1.13446 0.0743474 5.49894)
        viscous  : (0.00108861 0.0169372 -0.0294582)
        porous   : (0 0 0)

Time = 86

smoothSolver:  Solving for Ux, Initial residual = 0.00197597, Final residual = 8.41656e-06, No Iterations 8
smoothSolver:  Solving for Uy, Initial residual = 0.00114927, Final residual = 6.09262e-06, No Iterations 8
GAMG:  Solving for p, Initial residual = 0.00160517, Final residual = 1.20353e-05, No Iterations 5
time step continuity errors : sum local = 3.45784e-06, global = -1.9501e-16, cumulative = -6.18085e-16
smoothSolver:  Solving for nuTilda, Initial residual = 0.00121228, Final residual = 5.56733e-06, No Iterations 8
bounding nuTilda, min: -0.000189231 max: 0.435097 average: 0.0542955
ExecutionTime = 8.02 s  ClockTime = 8 s

Time = 87

smoothSolver:  Solving for Ux, Initial residual = 0.00196243, Final residual = 8.35042e-06, No Iterations 8
smoothSolver:  Solving for Uy, Initial residual = 0.00114532, Final residual = 6.06109e-06, No Iterations 8
GAMG:  Solving for p, Initial residual = 0.00159575, Final residual = 1.05724e-05, No Iterations 5
time step continuity errors : sum local = 3.05255e-06, global = 2.41852e-17, cumulative = -5.93899e-16
smoothSolver:  Solving for nuTilda, Initial residual = 0.00118727, Final residual = 5.44295e-06, No Iterations 8
ExecutionTime = 8.11 s  ClockTime = 8 s

Time = 88

smoothSolver:  Solving for Ux, Initial residual = 0.00194898, Final residual = 8.28474e-06, No Iterations 8
smoothSolver:  Solving for Uy, Initial residual = 0.00114158, Final residual = 6.03017e-06, No Iterations 8
GAMG:  Solving for p, Initial residual = 0.00158506, Final residual = 1.10271e-05, No Iterations 5
time step continuity errors : sum local = 3.18578e-06, global = 1.1715e-16, cumulative = -4.76749e-16
smoothSolver:  Solving for nuTilda, Initial residual = 0.0011629, Final residual = 5.32218e-06, No Iterations 8
bounding nuTilda, min: -0.00019052 max: 0.435082 average: 0.0536697
ExecutionTime = 8.2 s  ClockTime = 8 s

Time = 89

smoothSolver:  Solving for Ux, Initial residual = 0.00193636, Final residual = 8.22341e-06, No Iterations 8
smoothSolver:  Solving for Uy, Initial residual = 0.00113632, Final residual = 5.9925e-06, No Iterations 8
GAMG:  Solving for p, Initial residual = 0.00157667, Final residual = 1.21675e-05, No Iterations 5
time step continuity errors : sum local = 3.49541e-06, global = 1.57198e-16, cumulative = -3.19551e-16
smoothSolver:  Solving for nuTilda, Initial residual = 0.00113914, Final residual = 5.20495e-06, No Iterations 8
ExecutionTime = 8.29 s  ClockTime = 8 s

Time = 90

smoothSolver:  Solving for Ux, Initial residual = 0.00192418, Final residual = 8.1644e-06, No Iterations 8
smoothSolver:  Solving for Uy, Initial residual = 0.00113018, Final residual = 5.95128e-06, No Iterations 8
GAMG:  Solving for p, Initial residual = 0.00156711, Final residual = 1.22452e-05, No Iterations 5
time step continuity errors : sum local = 3.52701e-06, global = 2.96642e-16, cumulative = -2.29091e-17
smoothSolver:  Solving for nuTilda, Initial residual = 0.00111591, Final residual = 5.089e-06, No Iterations 8
bounding nuTilda, min: -0.000191065 max: 0.435067 average: 0.0530612
ExecutionTime = 8.37 s  ClockTime = 9 s

forces wings output:
    sum of forces:
        pressure : (1.49181 23.1472 2.83185e-20)
        viscous  : (0.331927 -0.0210153 -2.1608e-21)
        porous   : (0 0 0)
    sum of moments:
        pressure : (-1.15736 0.0745907 5.56269)
        viscous  : (0.00105077 0.0165964 -0.0288268)
        porous   : (0 0 0)

Time = 91

smoothSolver:  Solving for Ux, Initial residual = 0.00191179, Final residual = 8.10382e-06, No Iterations 8
smoothSolver:  Solving for Uy, Initial residual = 0.00112511, Final residual = 5.9139e-06, No Iterations 8
GAMG:  Solving for p, Initial residual = 0.00155752, Final residual = 1.05957e-05, No Iterations 5
time step continuity errors : sum local = 3.06251e-06, global = -8.65525e-17, cumulative = -1.09462e-16
smoothSolver:  Solving for nuTilda, Initial residual = 0.00109382, Final residual = 4.97316e-06, No Iterations 8
ExecutionTime = 8.47 s  ClockTime = 9 s

Time = 92

smoothSolver:  Solving for Ux, Initial residual = 0.00189902, Final residual = 8.0409e-06, No Iterations 8
smoothSolver:  Solving for Uy, Initial residual = 0.00112133, Final residual = 5.88216e-06, No Iterations 8
GAMG:  Solving for p, Initial residual = 0.00154692, Final residual = 1.06298e-05, No Iterations 5
time step continuity errors : sum local = 3.07697e-06, global = 3.4081e-17, cumulative = -7.53806e-17
smoothSolver:  Solving for nuTilda, Initial residual = 0.00107141, Final residual = 4.86306e-06, No Iterations 8
bounding nuTilda, min: -0.00019128 max: 0.435052 average: 0.0524694
ExecutionTime = 8.56 s  ClockTime = 9 s

Time = 93

smoothSolver:  Solving for Ux, Initial residual = 0.00188696, Final residual = 7.98203e-06, No Iterations 8
smoothSolver:  Solving for Uy, Initial residual = 0.00111607, Final residual = 5.844e-06, No Iterations 8
GAMG:  Solving for p, Initial residual = 0.00153816, Final residual = 1.22042e-05, No Iterations 5
time step continuity errors : sum local = 3.5181e-06, global = 2.38962e-16, cumulative = 1.63582e-16
smoothSolver:  Solving for nuTilda, Initial residual = 0.00104948, Final residual = 4.75728e-06, No Iterations 8
ExecutionTime = 8.64 s  ClockTime = 9 s

Time = 94

smoothSolver:  Solving for Ux, Initial residual = 0.0018757, Final residual = 7.92761e-06, No Iterations 8
smoothSolver:  Solving for Uy, Initial residual = 0.00110871, Final residual = 5.79743e-06, No Iterations 8
GAMG:  Solving for p, Initial residual = 0.00152885, Final residual = 1.08252e-05, No Iterations 5
time step continuity errors : sum local = 3.1378e-06, global = -1.44136e-16, cumulative = 1.94452e-17
smoothSolver:  Solving for nuTilda, Initial residual = 0.00102818, Final residual = 4.65537e-06, No Iterations 8
bounding nuTilda, min: -0.00019147 max: 0.435037 average: 0.0518938
ExecutionTime = 8.73 s  ClockTime = 9 s

Time = 95

smoothSolver:  Solving for Ux, Initial residual = 0.00186399, Final residual = 7.87051e-06, No Iterations 8
smoothSolver:  Solving for Uy, Initial residual = 0.00110295, Final residual = 5.75636e-06, No Iterations 8
GAMG:  Solving for p, Initial residual = 0.00151909, Final residual = 1.22252e-05, No Iterations 5
time step continuity errors : sum local = 3.529e-06, global = -5.33048e-17, cumulative = -3.38596e-17
smoothSolver:  Solving for nuTilda, Initial residual = 0.00100737, Final residual = 4.55716e-06, No Iterations 8
ExecutionTime = 8.82 s  ClockTime = 9 s

forces wings output:
    sum of forces:
        pressure : (1.49336 23.6024 2.80268e-20)
        viscous  : (0.326096 -0.0203174 -2.21949e-21)
        porous   : (0 0 0)
    sum of moments:
        pressure : (-1.18012 0.0746682 5.61987)
        viscous  : (0.00101587 0.0163048 -0.0282827)
        porous   : (0 0 0)

Time = 96

smoothSolver:  Solving for Ux, Initial residual = 0.00185232, Final residual = 7.81404e-06, No Iterations 8
smoothSolver:  Solving for Uy, Initial residual = 0.00109672, Final residual = 5.7139e-06, No Iterations 8
GAMG:  Solving for p, Initial residual = 0.00150837, Final residual = 1.05382e-05, No Iterations 5
time step continuity errors : sum local = 3.05519e-06, global = 2.00714e-16, cumulative = 1.66854e-16
smoothSolver:  Solving for nuTilda, Initial residual = 0.000987216, Final residual = 4.46232e-06, No Iterations 8
bounding nuTilda, min: -0.000191509 max: 0.435021 average: 0.0513336
ExecutionTime = 8.91 s  ClockTime = 9 s

Time = 97

smoothSolver:  Solving for Ux, Initial residual = 0.00184025, Final residual = 7.75567e-06, No Iterations 8
smoothSolver:  Solving for Uy, Initial residual = 0.00109181, Final residual = 5.67629e-06, No Iterations 8
GAMG:  Solving for p, Initial residual = 0.00149745, Final residual = 1.05687e-05, No Iterations 5
time step continuity errors : sum local = 3.06775e-06, global = -7.22493e-17, cumulative = 9.46049e-17
smoothSolver:  Solving for nuTilda, Initial residual = 0.000967808, Final residual = 4.37037e-06, No Iterations 8
ExecutionTime = 9 s  ClockTime = 9 s

Time = 98

smoothSolver:  Solving for Ux, Initial residual = 0.00182872, Final residual = 7.70055e-06, No Iterations 8
smoothSolver:  Solving for Uy, Initial residual = 0.00108536, Final residual = 5.63294e-06, No Iterations 8
GAMG:  Solving for p, Initial residual = 0.00149053, Final residual = 1.20398e-05, No Iterations 5
time step continuity errors : sum local = 3.48107e-06, global = 1.48579e-16, cumulative = 2.43184e-16
smoothSolver:  Solving for nuTilda, Initial residual = 0.000948909, Final residual = 4.28083e-06, No Iterations 8
bounding nuTilda, min: -0.000222323 max: 0.435006 average: 0.0507883
ExecutionTime = 9.09 s  ClockTime = 9 s

Time = 99

smoothSolver:  Solving for Ux, Initial residual = 0.00181779, Final residual = 7.64896e-06, No Iterations 8
smoothSolver:  Solving for Uy, Initial residual = 0.0010771, Final residual = 5.58207e-06, No Iterations 8
GAMG:  Solving for p, Initial residual = 0.00147833, Final residual = 1.04037e-05, No Iterations 5
time step continuity errors : sum local = 3.02194e-06, global = -9.6004e-17, cumulative = 1.4718e-16
smoothSolver:  Solving for nuTilda, Initial residual = 0.000930616, Final residual = 4.19245e-06, No Iterations 8
ExecutionTime = 9.18 s  ClockTime = 9 s

Time = 100

smoothSolver:  Solving for Ux, Initial residual = 0.00180625, Final residual = 7.59394e-06, No Iterations 8
smoothSolver:  Solving for Uy, Initial residual = 0.00107054, Final residual = 5.53792e-06, No Iterations 8
GAMG:  Solving for p, Initial residual = 0.00146486, Final residual = 1.05322e-05, No Iterations 5
time step continuity errors : sum local = 3.06204e-06, global = -2.91362e-16, cumulative = -1.44183e-16
smoothSolver:  Solving for nuTilda, Initial residual = 0.000912896, Final residual = 4.10573e-06, No Iterations 8
bounding nuTilda, min: -0.000202841 max: 0.434991 average: 0.0502576
ExecutionTime = 9.28 s  ClockTime = 9 s

forces wings output:
    sum of forces:
        pressure : (1.49152 24.0506 2.78372e-20)
        viscous  : (0.320895 -0.0196439 -2.28387e-21)
        porous   : (0 0 0)
    sum of moments:
        pressure : (-1.20253 0.0745758 5.66984)
        viscous  : (0.000982195 0.0160447 -0.0277945)
        porous   : (0 0 0)

Time = 101

smoothSolver:  Solving for Ux, Initial residual = 0.0017947, Final residual = 7.53938e-06, No Iterations 8
smoothSolver:  Solving for Uy, Initial residual = 0.00106377, Final residual = 5.49276e-06, No Iterations 8
GAMG:  Solving for p, Initial residual = 0.00145452, Final residual = 1.19054e-05, No Iterations 5
time step continuity errors : sum local = 3.44743e-06, global = -1.04545e-16, cumulative = -2.48727e-16
smoothSolver:  Solving for nuTilda, Initial residual = 0.000895499, Final residual = 4.02141e-06, No Iterations 8
ExecutionTime = 9.38 s  ClockTime = 10 s

Time = 102

smoothSolver:  Solving for Ux, Initial residual = 0.00178341, Final residual = 7.48665e-06, No Iterations 8
smoothSolver:  Solving for Uy, Initial residual = 0.00105578, Final residual = 5.44314e-06, No Iterations 8
GAMG:  Solving for p, Initial residual = 0.00144197, Final residual = 1.01137e-05, No Iterations 5
time step continuity errors : sum local = 2.94009e-06, global = -8.20597e-17, cumulative = -3.30787e-16
smoothSolver:  Solving for nuTilda, Initial residual = 0.000878493, Final residual = 3.93919e-06, No Iterations 8
bounding nuTilda, min: -0.000197045 max: 0.434976 average: 0.0497409
ExecutionTime = 9.48 s  ClockTime = 10 s

Time = 103

smoothSolver:  Solving for Ux, Initial residual = 0.00177178, Final residual = 7.43179e-06, No Iterations 8
smoothSolver:  Solving for Uy, Initial residual = 0.00104915, Final residual = 5.39839e-06, No Iterations 8
GAMG:  Solving for p, Initial residual = 0.00142915, Final residual = 1.00111e-05, No Iterations 5
time step continuity errors : sum local = 2.9129e-06, global = 1.11686e-16, cumulative = -2.19101e-16
smoothSolver:  Solving for nuTilda, Initial residual = 0.000861915, Final residual = 3.85878e-06, No Iterations 8
ExecutionTime = 9.57 s  ClockTime = 10 s

Time = 104

smoothSolver:  Solving for Ux, Initial residual = 0.00176038, Final residual = 7.37846e-06, No Iterations 8
smoothSolver:  Solving for Uy, Initial residual = 0.00104144, Final residual = 5.34958e-06, No Iterations 8
GAMG:  Solving for p, Initial residual = 0.00141725, Final residual = 1.00643e-05, No Iterations 5
time step continuity errors : sum local = 2.93229e-06, global = 4.73099e-17, cumulative = -1.71791e-16
smoothSolver:  Solving for nuTilda, Initial residual = 0.000845765, Final residual = 3.78002e-06, No Iterations 8
bounding nuTilda, min: -0.000230449 max: 0.434961 average: 0.0492378
ExecutionTime = 9.66 s  ClockTime = 10 s

Time = 105

smoothSolver:  Solving for Ux, Initial residual = 0.00174921, Final residual = 7.32682e-06, No Iterations 8
smoothSolver:  Solving for Uy, Initial residual = 0.00103266, Final residual = 5.2966e-06, No Iterations 8
GAMG:  Solving for p, Initial residual = 0.00140386, Final residual = 1.14671e-05, No Iterations 5
time step continuity errors : sum local = 3.32665e-06, global = 4.91353e-17, cumulative = -1.22656e-16
smoothSolver:  Solving for nuTilda, Initial residual = 0.000830006, Final residual = 3.70285e-06, No Iterations 8
ExecutionTime = 9.75 s  ClockTime = 10 s

forces wings output:
    sum of forces:
        pressure : (1.48721 24.507 2.73086e-20)
        viscous  : (0.316078 -0.018988 -2.32771e-21)
        porous   : (0 0 0)
    sum of moments:
        pressure : (-1.22535 0.0743603 5.71615)
        viscous  : (0.000949401 0.0158039 -0.0273405)
        porous   : (0 0 0)

Time = 106

smoothSolver:  Solving for Ux, Initial residual = 0.00173811, Final residual = 7.27561e-06, No Iterations 8
smoothSolver:  Solving for Uy, Initial residual = 0.00102329, Final residual = 5.24136e-06, No Iterations 8
GAMG:  Solving for p, Initial residual = 0.00138815, Final residual = 9.73277e-06, No Iterations 5
time step continuity errors : sum local = 2.83408e-06, global = 1.43249e-16, cumulative = 2.05928e-17
smoothSolver:  Solving for nuTilda, Initial residual = 0.000814683, Final residual = 3.62727e-06, No Iterations 8
bounding nuTilda, min: -0.00020844 max: 0.434946 average: 0.048748
ExecutionTime = 9.85 s  ClockTime = 10 s

Time = 107

smoothSolver:  Solving for Ux, Initial residual = 0.00172642, Final residual = 7.22031e-06, No Iterations 8
smoothSolver:  Solving for Uy, Initial residual = 0.00101624, Final residual = 5.19513e-06, No Iterations 8
GAMG:  Solving for p, Initial residual = 0.00137183, Final residual = 9.57692e-06, No Iterations 5
time step continuity errors : sum local = 2.7895e-06, global = 3.0643e-16, cumulative = 3.27023e-16
smoothSolver:  Solving for nuTilda, Initial residual = 0.000799761, Final residual = 3.55325e-06, No Iterations 8
ExecutionTime = 9.94 s  ClockTime = 10 s

Time = 108

smoothSolver:  Solving for Ux, Initial residual = 0.00171479, Final residual = 7.16578e-06, No Iterations 8
smoothSolver:  Solving for Uy, Initial residual = 0.00100838, Final residual = 5.14636e-06, No Iterations 8
GAMG:  Solving for p, Initial residual = 0.00135779, Final residual = 9.43356e-06, No Iterations 5
time step continuity errors : sum local = 2.75076e-06, global = 7.9272e-17, cumulative = 4.06295e-16
smoothSolver:  Solving for nuTilda, Initial residual = 0.000785173, Final residual = 3.48084e-06, No Iterations 8
bounding nuTilda, min: -0.000235561 max: 0.434931 average: 0.048271
ExecutionTime = 10.03 s  ClockTime = 10 s

Time = 109

smoothSolver:  Solving for Ux, Initial residual = 0.00170347, Final residual = 7.11319e-06, No Iterations 8
smoothSolver:  Solving for Uy, Initial residual = 0.000999144, Final residual = 5.09209e-06, No Iterations 8
GAMG:  Solving for p, Initial residual = 0.00134331, Final residual = 9.42146e-06, No Iterations 5
time step continuity errors : sum local = 2.75105e-06, global = 1.74943e-16, cumulative = 5.81238e-16
smoothSolver:  Solving for nuTilda, Initial residual = 0.000770893, Final residual = 3.41007e-06, No Iterations 8
ExecutionTime = 10.12 s  ClockTime = 10 s

Time = 110

smoothSolver:  Solving for Ux, Initial residual = 0.00169216, Final residual = 7.06107e-06, No Iterations 8
smoothSolver:  Solving for Uy, Initial residual = 0.000989215, Final residual = 5.0349e-06, No Iterations 8
GAMG:  Solving for p, Initial residual = 0.00132824, Final residual = 9.53682e-06, No Iterations 5
time step continuity errors : sum local = 2.78638e-06, global = 1.25006e-16, cumulative = 7.06244e-16
smoothSolver:  Solving for nuTilda, Initial residual = 0.000756883, Final residual = 3.34095e-06, No Iterations 8
bounding nuTilda, min: -0.000212577 max: 0.434917 average: 0.0478065
ExecutionTime = 10.21 s  ClockTime = 10 s

forces wings output:
    sum of forces:
        pressure : (1.47889 24.932 2.70682e-20)
        viscous  : (0.311641 -0.0183571 -2.38838e-21)
        porous   : (0 0 0)
    sum of moments:
        pressure : (-1.2466 0.0739447 5.75121)
        viscous  : (0.000917854 0.0155821 -0.0269216)
        porous   : (0 0 0)

Time = 111

smoothSolver:  Solving for Ux, Initial residual = 0.00168064, Final residual = 7.00767e-06, No Iterations 8
smoothSolver:  Solving for Uy, Initial residual = 0.00097962, Final residual = 4.97902e-06, No Iterations 8
GAMG:  Solving for p, Initial residual = 0.00131261, Final residual = 9.48605e-06, No Iterations 5
time step continuity errors : sum local = 2.77196e-06, global = -1.34303e-17, cumulative = 6.92814e-16
smoothSolver:  Solving for nuTilda, Initial residual = 0.000743172, Final residual = 3.27352e-06, No Iterations 8
ExecutionTime = 10.31 s  ClockTime = 10 s

Time = 112

smoothSolver:  Solving for Ux, Initial residual = 0.00166877, Final residual = 6.95213e-06, No Iterations 8
smoothSolver:  Solving for Uy, Initial residual = 0.000970671, Final residual = 4.92614e-06, No Iterations 8
GAMG:  Solving for p, Initial residual = 0.00129644, Final residual = 9.05587e-06, No Iterations 5
time step continuity errors : sum local = 2.64778e-06, global = 1.60802e-16, cumulative = 8.53616e-16
smoothSolver:  Solving for nuTilda, Initial residual = 0.000729746, Final residual = 3.20769e-06, No Iterations 8
bounding nuTilda, min: -0.000241888 max: 0.434903 average: 0.0473542
ExecutionTime = 10.4 s  ClockTime = 11 s

Time = 113

smoothSolver:  Solving for Ux, Initial residual = 0.00165676, Final residual = 6.89548e-06, No Iterations 8
smoothSolver:  Solving for Uy, Initial residual = 0.000961946, Final residual = 4.8743e-06, No Iterations 8
GAMG:  Solving for p, Initial residual = 0.0012808, Final residual = 8.7356e-06, No Iterations 5
time step continuity errors : sum local = 2.55427e-06, global = -2.4339e-16, cumulative = 6.10226e-16
smoothSolver:  Solving for nuTilda, Initial residual = 0.000716539, Final residual = 3.14301e-06, No Iterations 8
ExecutionTime = 10.49 s  ClockTime = 11 s

Time = 114

smoothSolver:  Solving for Ux, Initial residual = 0.0016448, Final residual = 6.83921e-06, No Iterations 8
smoothSolver:  Solving for Uy, Initial residual = 0.000952574, Final residual = 4.81997e-06, No Iterations 8
GAMG:  Solving for p, Initial residual = 0.00126438, Final residual = 8.53345e-06, No Iterations 5
time step continuity errors : sum local = 2.49484e-06, global = -1.42904e-17, cumulative = 5.95936e-16
smoothSolver:  Solving for nuTilda, Initial residual = 0.000703532, Final residual = 3.07936e-06, No Iterations 8
bounding nuTilda, min: -0.00021842 max: 0.434889 average: 0.0469136
ExecutionTime = 10.58 s  ClockTime = 11 s

Time = 115

smoothSolver:  Solving for Ux, Initial residual = 0.00163293, Final residual = 6.78352e-06, No Iterations 8
smoothSolver:  Solving for Uy, Initial residual = 0.000942411, Final residual = 4.76213e-06, No Iterations 8
GAMG:  Solving for p, Initial residual = 0.0012486, Final residual = 8.36942e-06, No Iterations 5
time step continuity errors : sum local = 2.44723e-06, global = 3.33185e-17, cumulative = 6.29254e-16
smoothSolver:  Solving for nuTilda, Initial residual = 0.00069075, Final residual = 3.01706e-06, No Iterations 8
ExecutionTime = 10.66 s  ClockTime = 11 s

forces wings output:
    sum of forces:
        pressure : (1.46699 25.3323 2.6642e-20)
        viscous  : (0.307606 -0.0177749 -2.43436e-21)
        porous   : (0 0 0)
    sum of moments:
        pressure : (-1.26662 0.0733496 5.77657)
        viscous  : (0.000888745 0.0153803 -0.0265392)
        porous   : (0 0 0)

Time = 116

smoothSolver:  Solving for Ux, Initial residual = 0.00162096, Final residual = 6.72722e-06, No Iterations 8
smoothSolver:  Solving for Uy, Initial residual = 0.000931842, Final residual = 4.70319e-06, No Iterations 8
GAMG:  Solving for p, Initial residual = 0.00123324, Final residual = 8.17434e-06, No Iterations 5
time step continuity errors : sum local = 2.39084e-06, global = 1.63747e-16, cumulative = 7.93001e-16
smoothSolver:  Solving for nuTilda, Initial residual = 0.000678216, Final residual = 2.95628e-06, No Iterations 8
bounding nuTilda, min: -0.000250151 max: 0.434876 average: 0.0464846
ExecutionTime = 10.75 s  ClockTime = 11 s

Time = 117

smoothSolver:  Solving for Ux, Initial residual = 0.0016087, Final residual = 6.66944e-06, No Iterations 8
smoothSolver:  Solving for Uy, Initial residual = 0.000921471, Final residual = 4.64524e-06, No Iterations 8
GAMG:  Solving for p, Initial residual = 0.00121776, Final residual = 7.98821e-06, No Iterations 5
[...]

forces wings output:
    sum of forces:
        pressure : (0.669737 27.128 1.98171e-20)
        viscous  : (0.193968 -0.0114784 -3.91378e-21)
        porous   : (0 0 0)
    sum of moments:
        pressure : (-1.3564 0.0334869 4.49269)
        viscous  : (0.00057392 0.0096984 -0.0163419)
        porous   : (0 0 0)

Time = 4971

smoothSolver:  Solving for Ux, Initial residual = 2.95766e-08, Final residual = 4.67485e-09, No Iterations 2
smoothSolver:  Solving for Uy, Initial residual = 5.39279e-08, Final residual = 8.63407e-09, No Iterations 2
GAMG:  Solving for p, Initial residual = 9.26749e-07, Final residual = 9.26749e-07, No Iterations 0
time step continuity errors : sum local = 2.62224e-07, global = 2.09537e-16, cumulative = 3.98606e-14
smoothSolver:  Solving for nuTilda, Initial residual = 9.35819e-09, Final residual = 9.35819e-09, No Iterations 0
ExecutionTime = 343.77 s  ClockTime = 344 s

Time = 4972

smoothSolver:  Solving for Ux, Initial residual = 2.7866e-08, Final residual = 4.46606e-09, No Iterations 2
smoothSolver:  Solving for Uy, Initial residual = 5.05242e-08, Final residual = 8.24838e-09, No Iterations 2
GAMG:  Solving for p, Initial residual = 1.22841e-06, Final residual = 5.49746e-07, No Iterations 1
time step continuity errors : sum local = 1.55549e-07, global = 1.3261e-17, cumulative = 3.98739e-14
smoothSolver:  Solving for nuTilda, Initial residual = 9.35578e-09, Final residual = 9.35578e-09, No Iterations 0
ExecutionTime = 343.83 s  ClockTime = 344 s

Time = 4973

smoothSolver:  Solving for Ux, Initial residual = 3.24224e-08, Final residual = 5.14345e-09, No Iterations 2
smoothSolver:  Solving for Uy, Initial residual = 5.88157e-08, Final residual = 9.34636e-09, No Iterations 2
GAMG:  Solving for p, Initial residual = 8.03037e-07, Final residual = 8.03037e-07, No Iterations 0
time step continuity errors : sum local = 2.27219e-07, global = 5.5443e-17, cumulative = 3.99293e-14
smoothSolver:  Solving for nuTilda, Initial residual = 9.3576e-09, Final residual = 9.3576e-09, No Iterations 0
ExecutionTime = 343.9 s  ClockTime = 344 s

Time = 4974

smoothSolver:  Solving for Ux, Initial residual = 3.02976e-08, Final residual = 4.90842e-09, No Iterations 2
smoothSolver:  Solving for Uy, Initial residual = 5.52584e-08, Final residual = 8.94427e-09, No Iterations 2
GAMG:  Solving for p, Initial residual = 9.70043e-07, Final residual = 9.70043e-07, No Iterations 0
time step continuity errors : sum local = 2.74472e-07, global = 1.59875e-16, cumulative = 4.00892e-14
smoothSolver:  Solving for nuTilda, Initial residual = 9.36269e-09, Final residual = 9.36269e-09, No Iterations 0
ExecutionTime = 343.96 s  ClockTime = 344 s

Time = 4975

smoothSolver:  Solving for Ux, Initial residual = 2.88665e-08, Final residual = 4.74213e-09, No Iterations 2
smoothSolver:  Solving for Uy, Initial residual = 5.19813e-08, Final residual = 8.60203e-09, No Iterations 2
GAMG:  Solving for p, Initial residual = 1.27328e-06, Final residual = 5.74029e-07, No Iterations 1
time step continuity errors : sum local = 1.62422e-07, global = 1.04453e-17, cumulative = 4.00996e-14
smoothSolver:  Solving for nuTilda, Initial residual = 9.36932e-09, Final residual = 9.36932e-09, No Iterations 0
ExecutionTime = 344.02 s  ClockTime = 344 s

forces wings output:
    sum of forces:
        pressure : (0.669738 27.128 1.98174e-20)
        viscous  : (0.193968 -0.0114784 -3.9138e-21)
        porous   : (0 0 0)
    sum of moments:
        pressure : (-1.3564 0.0334869 4.49269)
        viscous  : (0.000573921 0.0096984 -0.0163419)
        porous   : (0 0 0)

Time = 4976

smoothSolver:  Solving for Ux, Initial residual = 3.08411e-08, Final residual = 4.71079e-09, No Iterations 2
smoothSolver:  Solving for Uy, Initial residual = 5.96779e-08, Final residual = 9.55899e-09, No Iterations 2
GAMG:  Solving for p, Initial residual = 8.14767e-07, Final residual = 8.14767e-07, No Iterations 0
time step continuity errors : sum local = 2.30535e-07, global = -2.89032e-17, cumulative = 4.00707e-14
smoothSolver:  Solving for nuTilda, Initial residual = 9.36529e-09, Final residual = 9.36529e-09, No Iterations 0
ExecutionTime = 344.08 s  ClockTime = 344 s

Time = 4977

smoothSolver:  Solving for Ux, Initial residual = 2.86863e-08, Final residual = 4.49059e-09, No Iterations 2
smoothSolver:  Solving for Uy, Initial residual = 5.61253e-08, Final residual = 9.14295e-09, No Iterations 2
GAMG:  Solving for p, Initial residual = 9.8121e-07, Final residual = 9.8121e-07, No Iterations 0
time step continuity errors : sum local = 2.7763e-07, global = -7.9502e-17, cumulative = 3.99912e-14
smoothSolver:  Solving for nuTilda, Initial residual = 9.38768e-09, Final residual = 9.38768e-09, No Iterations 0
ExecutionTime = 344.14 s  ClockTime = 344 s

Time = 4978

smoothSolver:  Solving for Ux, Initial residual = 2.71884e-08, Final residual = 4.34807e-09, No Iterations 2
smoothSolver:  Solving for Uy, Initial residual = 5.26791e-08, Final residual = 8.72232e-09, No Iterations 2
GAMG:  Solving for p, Initial residual = 1.29995e-06, Final residual = 5.88691e-07, No Iterations 1
time step continuity errors : sum local = 1.66569e-07, global = -1.24244e-16, cumulative = 3.9867e-14
smoothSolver:  Solving for nuTilda, Initial residual = 9.4023e-09, Final residual = 9.4023e-09, No Iterations 0
ExecutionTime = 344.2 s  ClockTime = 344 s

Time = 4979

smoothSolver:  Solving for Ux, Initial residual = 3.26418e-08, Final residual = 5.04285e-09, No Iterations 2
smoothSolver:  Solving for Uy, Initial residual = 6.05396e-08, Final residual = 9.54476e-09, No Iterations 2
GAMG:  Solving for p, Initial residual = 8.35395e-07, Final residual = 8.35395e-07, No Iterations 0
time step continuity errors : sum local = 2.36372e-07, global = -1.81327e-17, cumulative = 3.98488e-14
smoothSolver:  Solving for nuTilda, Initial residual = 9.41579e-09, Final residual = 9.41579e-09, No Iterations 0
ExecutionTime = 344.26 s  ClockTime = 344 s

Time = 4980

smoothSolver:  Solving for Ux, Initial residual = 3.03111e-08, Final residual = 4.77443e-09, No Iterations 2
smoothSolver:  Solving for Uy, Initial residual = 5.69687e-08, Final residual = 9.13556e-09, No Iterations 2
GAMG:  Solving for p, Initial residual = 1.00787e-06, Final residual = 4.58988e-07, No Iterations 1
time step continuity errors : sum local = 1.29872e-07, global = -6.50021e-18, cumulative = 3.98423e-14
smoothSolver:  Solving for nuTilda, Initial residual = 9.39327e-09, Final residual = 9.39327e-09, No Iterations 0
ExecutionTime = 344.33 s  ClockTime = 345 s

forces wings output:
    sum of forces:
        pressure : (0.669739 27.128 1.98155e-20)
        viscous  : (0.193968 -0.0114784 -3.91376e-21)
        porous   : (0 0 0)
    sum of moments:
        pressure : (-1.3564 0.0334869 4.49269)
        viscous  : (0.000573921 0.00969839 -0.0163419)
        porous   : (0 0 0)

Time = 4981

smoothSolver:  Solving for Ux, Initial residual = 3.60889e-08, Final residual = 5.7804e-09, No Iterations 2
smoothSolver:  Solving for Uy, Initial residual = 6.63735e-08, Final residual = 1.89192e-09, No Iterations 4
GAMG:  Solving for p, Initial residual = 8.1509e-07, Final residual = 8.1509e-07, No Iterations 0
time step continuity errors : sum local = 2.30628e-07, global = -1.99571e-17, cumulative = 3.98224e-14
smoothSolver:  Solving for nuTilda, Initial residual = 9.42237e-09, Final residual = 9.42237e-09, No Iterations 0
ExecutionTime = 344.4 s  ClockTime = 345 s

Time = 4982

smoothSolver:  Solving for Ux, Initial residual = 3.38794e-08, Final residual = 5.53241e-09, No Iterations 2
smoothSolver:  Solving for Uy, Initial residual = 6.17939e-08, Final residual = 1.82052e-09, No Iterations 4
GAMG:  Solving for p, Initial residual = 1.15399e-06, Final residual = 5.18503e-07, No Iterations 1
time step continuity errors : sum local = 1.46715e-07, global = -1.58299e-16, cumulative = 3.96641e-14
smoothSolver:  Solving for nuTilda, Initial residual = 9.36896e-09, Final residual = 9.36896e-09, No Iterations 0
ExecutionTime = 344.46 s  ClockTime = 345 s

Time = 4983

smoothSolver:  Solving for Ux, Initial residual = 2.95327e-08, Final residual = 4.67059e-09, No Iterations 2
smoothSolver:  Solving for Uy, Initial residual = 5.52944e-08, Final residual = 8.98259e-09, No Iterations 2
GAMG:  Solving for p, Initial residual = 8.3614e-07, Final residual = 8.3614e-07, No Iterations 0
time step continuity errors : sum local = 2.36586e-07, global = -2.64311e-16, cumulative = 3.93998e-14
smoothSolver:  Solving for nuTilda, Initial residual = 9.38511e-09, Final residual = 9.38511e-09, No Iterations 0
ExecutionTime = 344.52 s  ClockTime = 345 s

Time = 4984

smoothSolver:  Solving for Ux, Initial residual = 2.76407e-08, Final residual = 4.48562e-09, No Iterations 2
smoothSolver:  Solving for Uy, Initial residual = 5.20624e-08, Final residual = 8.60607e-09, No Iterations 2
GAMG:  Solving for p, Initial residual = 1.0453e-06, Final residual = 4.92656e-07, No Iterations 1
time step continuity errors : sum local = 1.39402e-07, global = 1.55508e-16, cumulative = 3.95553e-14
smoothSolver:  Solving for nuTilda, Initial residual = 9.35374e-09, Final residual = 9.35374e-09, No Iterations 0
ExecutionTime = 344.58 s  ClockTime = 345 s

Time = 4985

smoothSolver:  Solving for Ux, Initial residual = 3.23826e-08, Final residual = 4.96696e-09, No Iterations 2
smoothSolver:  Solving for Uy, Initial residual = 6.21277e-08, Final residual = 9.97821e-09, No Iterations 2
GAMG:  Solving for p, Initial residual = 7.71464e-07, Final residual = 7.71464e-07, No Iterations 0
time step continuity errors : sum local = 2.18287e-07, global = 9.26028e-17, cumulative = 3.96479e-14
smoothSolver:  Solving for nuTilda, Initial residual = 9.35926e-09, Final residual = 9.35926e-09, No Iterations 0
ExecutionTime = 344.64 s  ClockTime = 345 s

forces wings output:
    sum of forces:
        pressure : (0.669738 27.128 1.98166e-20)
        viscous  : (0.193968 -0.0114784 -3.91377e-21)
        porous   : (0 0 0)
    sum of moments:
        pressure : (-1.3564 0.0334869 4.49269)
        viscous  : (0.00057392 0.0096984 -0.0163419)
        porous   : (0 0 0)

Time = 4986

smoothSolver:  Solving for Ux, Initial residual = 3.0227e-08, Final residual = 4.74962e-09, No Iterations 2
smoothSolver:  Solving for Uy, Initial residual = 5.84679e-08, Final residual = 9.5518e-09, No Iterations 2
GAMG:  Solving for p, Initial residual = 1.03748e-06, Final residual = 4.70636e-07, No Iterations 1
time step continuity errors : sum local = 1.33168e-07, global = 6.57326e-17, cumulative = 3.97136e-14
smoothSolver:  Solving for nuTilda, Initial residual = 9.35589e-09, Final residual = 9.35589e-09, No Iterations 0
ExecutionTime = 344.71 s  ClockTime = 345 s

Time = 4987

smoothSolver:  Solving for Ux, Initial residual = 3.23694e-08, Final residual = 5.19596e-09, No Iterations 2
smoothSolver:  Solving for Uy, Initial residual = 5.87712e-08, Final residual = 9.68759e-09, No Iterations 2
GAMG:  Solving for p, Initial residual = 7.91769e-07, Final residual = 7.91769e-07, No Iterations 0
time step continuity errors : sum local = 2.24032e-07, global = 9.74501e-17, cumulative = 3.98111e-14
smoothSolver:  Solving for nuTilda, Initial residual = 9.35989e-09, Final residual = 9.35989e-09, No Iterations 0
ExecutionTime = 344.77 s  ClockTime = 345 s

Time = 4988

smoothSolver:  Solving for Ux, Initial residual = 3.03182e-08, Final residual = 4.95556e-09, No Iterations 2
smoothSolver:  Solving for Uy, Initial residual = 5.56227e-08, Final residual = 9.35544e-09, No Iterations 2
GAMG:  Solving for p, Initial residual = 1.02927e-06, Final residual = 4.79098e-07, No Iterations 1
time step continuity errors : sum local = 1.3556e-07, global = 6.43898e-17, cumulative = 3.98755e-14
smoothSolver:  Solving for nuTilda, Initial residual = 9.35531e-09, Final residual = 9.35531e-09, No Iterations 0
ExecutionTime = 344.84 s  ClockTime = 345 s

Time = 4989

smoothSolver:  Solving for Ux, Initial residual = 3.07329e-08, Final residual = 4.93046e-09, No Iterations 2
smoothSolver:  Solving for Uy, Initial residual = 5.67791e-08, Final residual = 9.17235e-09, No Iterations 2
GAMG:  Solving for p, Initial residual = 7.54546e-07, Final residual = 7.54546e-07, No Iterations 0
time step continuity errors : sum local = 2.13498e-07, global = 5.54444e-17, cumulative = 3.99309e-14
smoothSolver:  Solving for nuTilda, Initial residual = 9.35329e-09, Final residual = 9.35329e-09, No Iterations 0
ExecutionTime = 344.9 s  ClockTime = 345 s

Time = 4990

smoothSolver:  Solving for Ux, Initial residual = 2.87969e-08, Final residual = 4.72382e-09, No Iterations 2
smoothSolver:  Solving for Uy, Initial residual = 5.34701e-08, Final residual = 8.77063e-09, No Iterations 2
GAMG:  Solving for p, Initial residual = 9.79318e-07, Final residual = 9.79318e-07, No Iterations 0
time step continuity errors : sum local = 2.77096e-07, global = -1.55183e-16, cumulative = 3.97757e-14
smoothSolver:  Solving for nuTilda, Initial residual = 9.35963e-09, Final residual = 9.35963e-09, No Iterations 0
ExecutionTime = 344.96 s  ClockTime = 345 s

forces wings output:
    sum of forces:
        pressure : (0.669738 27.128 1.98174e-20)
        viscous  : (0.193968 -0.0114784 -3.91381e-21)
        porous   : (0 0 0)
    sum of moments:
        pressure : (-1.3564 0.0334869 4.49269)
        viscous  : (0.000573921 0.0096984 -0.0163419)
        porous   : (0 0 0)

Time = 4991

smoothSolver:  Solving for Ux, Initial residual = 2.75248e-08, Final residual = 4.58621e-09, No Iterations 2
smoothSolver:  Solving for Uy, Initial residual = 5.0359e-08, Final residual = 8.40798e-09, No Iterations 2
GAMG:  Solving for p, Initial residual = 1.28563e-06, Final residual = 5.92378e-07, No Iterations 1
time step continuity errors : sum local = 1.67613e-07, global = -1.26439e-16, cumulative = 3.96493e-14
smoothSolver:  Solving for nuTilda, Initial residual = 9.38195e-09, Final residual = 9.38195e-09, No Iterations 0
ExecutionTime = 345.03 s  ClockTime = 345 s

Time = 4992

smoothSolver:  Solving for Ux, Initial residual = 3.18212e-08, Final residual = 4.85645e-09, No Iterations 2
smoothSolver:  Solving for Uy, Initial residual = 5.81779e-08, Final residual = 9.36088e-09, No Iterations 2
GAMG:  Solving for p, Initial residual = 7.88619e-07, Final residual = 7.88619e-07, No Iterations 0
time step continuity errors : sum local = 2.23137e-07, global = 1.75947e-16, cumulative = 3.98252e-14
smoothSolver:  Solving for nuTilda, Initial residual = 9.37727e-09, Final residual = 9.37727e-09, No Iterations 0
ExecutionTime = 345.09 s  ClockTime = 345 s

Time = 4993

smoothSolver:  Solving for Ux, Initial residual = 2.96085e-08, Final residual = 4.62778e-09, No Iterations 2
smoothSolver:  Solving for Uy, Initial residual = 5.47079e-08, Final residual = 8.94535e-09, No Iterations 2
GAMG:  Solving for p, Initial residual = 9.20446e-07, Final residual = 9.20446e-07, No Iterations 0
time step continuity errors : sum local = 2.60437e-07, global = 2.31693e-17, cumulative = 3.98484e-14
smoothSolver:  Solving for nuTilda, Initial residual = 9.40019e-09, Final residual = 9.40019e-09, No Iterations 0
ExecutionTime = 345.15 s  ClockTime = 345 s

Time = 4994

smoothSolver:  Solving for Ux, Initial residual = 2.79994e-08, Final residual = 4.46682e-09, No Iterations 2
smoothSolver:  Solving for Uy, Initial residual = 5.13424e-08, Final residual = 8.54415e-09, No Iterations 2
GAMG:  Solving for p, Initial residual = 1.21901e-06, Final residual = 5.49751e-07, No Iterations 1
time step continuity errors : sum local = 1.55551e-07, global = 8.48845e-17, cumulative = 3.99333e-14
smoothSolver:  Solving for nuTilda, Initial residual = 9.39672e-09, Final residual = 9.39672e-09, No Iterations 0
ExecutionTime = 345.22 s  ClockTime = 345 s

Time = 4995

smoothSolver:  Solving for Ux, Initial residual = 3.31845e-08, Final residual = 5.29715e-09, No Iterations 2
smoothSolver:  Solving for Uy, Initial residual = 5.88666e-08, Final residual = 9.48523e-09, No Iterations 2
GAMG:  Solving for p, Initial residual = 8.06239e-07, Final residual = 8.06239e-07, No Iterations 0
time step continuity errors : sum local = 2.28123e-07, global = -6.07632e-17, cumulative = 3.98725e-14
smoothSolver:  Solving for nuTilda, Initial residual = 9.40971e-09, Final residual = 9.40971e-09, No Iterations 0
ExecutionTime = 345.28 s  ClockTime = 346 s

forces wings output:
    sum of forces:
        pressure : (0.669739 27.128 1.98158e-20)
        viscous  : (0.193968 -0.0114784 -3.91376e-21)
        porous   : (0 0 0)
    sum of moments:
        pressure : (-1.3564 0.0334869 4.49269)
        viscous  : (0.000573921 0.0096984 -0.0163419)
        porous   : (0 0 0)

Time = 4996

smoothSolver:  Solving for Ux, Initial residual = 3.09374e-08, Final residual = 5.04383e-09, No Iterations 2
smoothSolver:  Solving for Uy, Initial residual = 5.54877e-08, Final residual = 9.15877e-09, No Iterations 2
GAMG:  Solving for p, Initial residual = 9.80573e-07, Final residual = 9.80573e-07, No Iterations 0
time step continuity errors : sum local = 2.77451e-07, global = 2.09128e-17, cumulative = 3.98934e-14
smoothSolver:  Solving for nuTilda, Initial residual = 9.42306e-09, Final residual = 9.42306e-09, No Iterations 0
ExecutionTime = 345.35 s  ClockTime = 346 s

Time = 4997

smoothSolver:  Solving for Ux, Initial residual = 2.94787e-08, Final residual = 4.84945e-09, No Iterations 2
smoothSolver:  Solving for Uy, Initial residual = 5.2431e-08, Final residual = 8.80919e-09, No Iterations 2
GAMG:  Solving for p, Initial residual = 1.2884e-06, Final residual = 5.86226e-07, No Iterations 1
time step continuity errors : sum local = 1.65875e-07, global = 9.46599e-17, cumulative = 3.99881e-14
smoothSolver:  Solving for nuTilda, Initial residual = 9.35786e-09, Final residual = 9.35786e-09, No Iterations 0
ExecutionTime = 345.4 s  ClockTime = 346 s

Time = 4998

smoothSolver:  Solving for Ux, Initial residual = 3.19182e-08, Final residual = 4.95752e-09, No Iterations 2
smoothSolver:  Solving for Uy, Initial residual = 6.08979e-08, Final residual = 9.81883e-09, No Iterations 2
GAMG:  Solving for p, Initial residual = 8.21544e-07, Final residual = 8.21544e-07, No Iterations 0
time step continuity errors : sum local = 2.32455e-07, global = -2.4452e-16, cumulative = 3.97436e-14
smoothSolver:  Solving for nuTilda, Initial residual = 9.37921e-09, Final residual = 9.37921e-09, No Iterations 0
ExecutionTime = 345.46 s  ClockTime = 346 s

Time = 4999

smoothSolver:  Solving for Ux, Initial residual = 2.97555e-08, Final residual = 4.75083e-09, No Iterations 2
smoothSolver:  Solving for Uy, Initial residual = 5.73429e-08, Final residual = 9.38803e-09, No Iterations 2
GAMG:  Solving for p, Initial residual = 9.82543e-07, Final residual = 9.82543e-07, No Iterations 0
time step continuity errors : sum local = 2.78009e-07, global = -1.96089e-18, cumulative = 3.97416e-14
smoothSolver:  Solving for nuTilda, Initial residual = 9.37341e-09, Final residual = 9.37341e-09, No Iterations 0
ExecutionTime = 345.53 s  ClockTime = 346 s

Time = 5000

smoothSolver:  Solving for Ux, Initial residual = 2.82166e-08, Final residual = 4.62758e-09, No Iterations 2
smoothSolver:  Solving for Uy, Initial residual = 5.3837e-08, Final residual = 8.95876e-09, No Iterations 2
GAMG:  Solving for p, Initial residual = 1.29929e-06, Final residual = 5.78297e-07, No Iterations 1
time step continuity errors : sum local = 1.63632e-07, global = 2.01708e-16, cumulative = 3.99433e-14
smoothSolver:  Solving for nuTilda, Initial residual = 9.34237e-09, Final residual = 9.34237e-09, No Iterations 0
ExecutionTime = 345.73 s  ClockTime = 346 s

forces wings output:
    sum of forces:
        pressure : (0.669738 27.128 1.98167e-20)
        viscous  : (0.193968 -0.0114784 -3.91374e-21)
        porous   : (0 0 0)
    sum of moments:
        pressure : (-1.3564 0.0334869 4.49269)
        viscous  : (0.00057392 0.00969839 -0.0163418)
        porous   : (0 0 0)

End

