/*---------------------------------------------------------------------------*\
| =========                 |                                                 |
| \\      /  F ield         | OpenFOAM: The Open Source CFD Toolbox           |
|  \\    /   O peration     | Version:  2.3.0                                 |
|   \\  /    A nd           | Web:      www.OpenFOAM.org                      |
|    \\/     M anipulation  |                                                 |
\*---------------------------------------------------------------------------*/
Build  : 2.3.0-f5222ca19ce6
Exec   : simpleFoam -case Runs/first_arc_300_0/case
Date   : Jan 12 2015
Time   : 00:37:06
Host   : "lordvon-XPS-8300"
PID    : 9770
Case   : Runs/first_arc_300_0/case
nProcs : 1
sigFpe : Enabling floating point exception trapping (FOAM_SIGFPE).
fileModificationChecking : Monitoring run-time modified files using timeStampMaster
allowSystemOperations : Disallowing user-supplied system call operations

// * * * * * * * * * * * * * * * * * * * * * * * * * * * * * * * * * * * * * //
Create time

Create mesh for time = 0

Reading field p

Reading field U

Reading/calculating face flux field phi

Selecting incompressible transport model Newtonian
Selecting RAS turbulence model SpalartAllmaras
SpalartAllmarasCoeffs
{
    sigmaNut        0.66666;
    kappa           0.41;
    Cb1             0.1355;
    Cb2             0.622;
    Cw2             0.3;
    Cw3             2;
    Cv1             7.1;
    Cv2             5;
}

    Employing Ashford correction
No finite volume options present


SIMPLE: convergence criteria
    field p	 tolerance 1e-12
    field U	 tolerance 1e-12
    field nuTilda	 tolerance 1e-12


Starting time loop

forces wings:
    Not including porosity effects

Time = 1

smoothSolver:  Solving for Ux, Initial residual = 1, Final residual = 0.00492138, No Iterations 6
smoothSolver:  Solving for Uy, Initial residual = 1, Final residual = 0.00854084, No Iterations 4
GAMG:  Solving for p, Initial residual = 1, Final residual = 0.00973205, No Iterations 8
time step continuity errors : sum local = 0.00114816, global = 2.12025e-16, cumulative = 2.12025e-16
smoothSolver:  Solving for nuTilda, Initial residual = 1, Final residual = 0.00398872, No Iterations 4
ExecutionTime = 0.38 s  ClockTime = 0 s

Time = 2

smoothSolver:  Solving for Ux, Initial residual = 0.501641, Final residual = 0.00246204, No Iterations 8
smoothSolver:  Solving for Uy, Initial residual = 0.638819, Final residual = 0.00356076, No Iterations 8
GAMG:  Solving for p, Initial residual = 0.721549, Final residual = 0.00653126, No Iterations 5
time step continuity errors : sum local = 0.00145354, global = 2.07096e-17, cumulative = 2.32734e-16
smoothSolver:  Solving for nuTilda, Initial residual = 0.186499, Final residual = 0.000751721, No Iterations 6
ExecutionTime = 0.47 s  ClockTime = 0 s

Time = 3

smoothSolver:  Solving for Ux, Initial residual = 0.195454, Final residual = 0.000951309, No Iterations 8
smoothSolver:  Solving for Uy, Initial residual = 0.235793, Final residual = 0.00129302, No Iterations 8
GAMG:  Solving for p, Initial residual = 0.559749, Final residual = 0.0055722, No Iterations 7
time step continuity errors : sum local = 0.00167592, global = 1.71398e-16, cumulative = 4.04132e-16
smoothSolver:  Solving for nuTilda, Initial residual = 0.0954284, Final residual = 0.000902573, No Iterations 6
ExecutionTime = 0.57 s  ClockTime = 0 s

Time = 4

smoothSolver:  Solving for Ux, Initial residual = 0.0687139, Final residual = 0.000256598, No Iterations 8
smoothSolver:  Solving for Uy, Initial residual = 0.0784371, Final residual = 0.000399089, No Iterations 8
GAMG:  Solving for p, Initial residual = 0.429932, Final residual = 0.00362603, No Iterations 6
time step continuity errors : sum local = 0.00115465, global = 1.95869e-16, cumulative = 6.00002e-16
smoothSolver:  Solving for nuTilda, Initial residual = 0.0721001, Final residual = 0.00021841, No Iterations 8
ExecutionTime = 0.66 s  ClockTime = 0 s

Time = 5

smoothSolver:  Solving for Ux, Initial residual = 0.179791, Final residual = 0.000870595, No Iterations 8
smoothSolver:  Solving for Uy, Initial residual = 0.338092, Final residual = 0.00180409, No Iterations 8
GAMG:  Solving for p, Initial residual = 0.357979, Final residual = 0.00229011, No Iterations 6
time step continuity errors : sum local = 0.000775398, global = -8.29559e-17, cumulative = 5.17046e-16
smoothSolver:  Solving for nuTilda, Initial residual = 0.0589289, Final residual = 0.000196461, No Iterations 8
ExecutionTime = 0.76 s  ClockTime = 0 s

forces wings output:
    sum of forces:
        pressure : (-146.656 37.0993 9.9873e-19)
        viscous  : (0.535952 -0.000353038 -3.20033e-20)
        porous   : (0 0 0)
    sum of moments:
        pressure : (-1.85497 -7.33281 -264.389)
        viscous  : (1.76519e-05 0.0267976 -0.0416184)
        porous   : (0 0 0)

Time = 6

smoothSolver:  Solving for Ux, Initial residual = 0.144063, Final residual = 0.000663046, No Iterations 8
smoothSolver:  Solving for Uy, Initial residual = 0.275429, Final residual = 0.00144975, No Iterations 8
GAMG:  Solving for p, Initial residual = 0.293611, Final residual = 0.0024452, No Iterations 7
time step continuity errors : sum local = 0.000876399, global = 5.11127e-17, cumulative = 5.68158e-16
smoothSolver:  Solving for nuTilda, Initial residual = 0.0490793, Final residual = 0.000169014, No Iterations 8
ExecutionTime = 0.86 s  ClockTime = 0 s

Time = 7

smoothSolver:  Solving for Ux, Initial residual = 0.0927014, Final residual = 0.000361433, No Iterations 8
smoothSolver:  Solving for Uy, Initial residual = 0.163843, Final residual = 0.000840613, No Iterations 8
GAMG:  Solving for p, Initial residual = 0.217455, Final residual = 0.00192409, No Iterations 5
time step continuity errors : sum local = 0.000697305, global = 3.93901e-16, cumulative = 9.6206e-16
smoothSolver:  Solving for nuTilda, Initial residual = 0.0413958, Final residual = 0.000144652, No Iterations 8
ExecutionTime = 0.95 s  ClockTime = 1 s

Time = 8

smoothSolver:  Solving for Ux, Initial residual = 0.113904, Final residual = 0.000522382, No Iterations 8
smoothSolver:  Solving for Uy, Initial residual = 0.183052, Final residual = 0.000959549, No Iterations 8
GAMG:  Solving for p, Initial residual = 0.218057, Final residual = 0.00163291, No Iterations 6
time step continuity errors : sum local = 0.000619815, global = 3.02119e-16, cumulative = 1.26418e-15
smoothSolver:  Solving for nuTilda, Initial residual = 0.0353273, Final residual = 0.000124854, No Iterations 8
ExecutionTime = 1.05 s  ClockTime = 1 s

Time = 9

smoothSolver:  Solving for Ux, Initial residual = 0.0531419, Final residual = 0.000219516, No Iterations 8
smoothSolver:  Solving for Uy, Initial residual = 0.0589792, Final residual = 0.000295732, No Iterations 8
GAMG:  Solving for p, Initial residual = 0.181825, Final residual = 0.00141779, No Iterations 7
time step continuity errors : sum local = 0.000544833, global = 1.36433e-17, cumulative = 1.27782e-15
smoothSolver:  Solving for nuTilda, Initial residual = 0.030559, Final residual = 0.000109316, No Iterations 8
ExecutionTime = 1.15 s  ClockTime = 1 s

Time = 10

smoothSolver:  Solving for Ux, Initial residual = 0.0489866, Final residual = 0.000192149, No Iterations 8
smoothSolver:  Solving for Uy, Initial residual = 0.087549, Final residual = 0.000433929, No Iterations 8
GAMG:  Solving for p, Initial residual = 0.150442, Final residual = 0.000888534, No Iterations 5
time step continuity errors : sum local = 0.000338047, global = 1.70829e-17, cumulative = 1.2949e-15
smoothSolver:  Solving for nuTilda, Initial residual = 0.0267732, Final residual = 9.73585e-05, No Iterations 8
ExecutionTime = 1.24 s  ClockTime = 1 s

forces wings output:
    sum of forces:
        pressure : (-84.9386 33.3246 5.91103e-19)
        viscous  : (0.50649 -0.000510554 -3.00213e-20)
        porous   : (0 0 0)
    sum of moments:
        pressure : (-1.66623 -4.24693 -150.166)
        viscous  : (2.55277e-05 0.0253245 -0.0507281)
        porous   : (0 0 0)

Time = 11

smoothSolver:  Solving for Ux, Initial residual = 0.0631691, Final residual = 0.000276094, No Iterations 8
smoothSolver:  Solving for Uy, Initial residual = 0.127196, Final residual = 0.000635136, No Iterations 8
GAMG:  Solving for p, Initial residual = 0.151648, Final residual = 0.000969809, No Iterations 6
time step continuity errors : sum local = 0.00037588, global = -6.33127e-17, cumulative = 1.23159e-15
smoothSolver:  Solving for nuTilda, Initial residual = 0.0237558, Final residual = 8.78953e-05, No Iterations 8
ExecutionTime = 1.34 s  ClockTime = 1 s

Time = 12

smoothSolver:  Solving for Ux, Initial residual = 0.032655, Final residual = 0.000115996, No Iterations 8
smoothSolver:  Solving for Uy, Initial residual = 0.038765, Final residual = 0.000163111, No Iterations 8
GAMG:  Solving for p, Initial residual = 0.122928, Final residual = 0.000957491, No Iterations 6
time step continuity errors : sum local = 0.000369352, global = 9.81018e-18, cumulative = 1.2414e-15
smoothSolver:  Solving for nuTilda, Initial residual = 0.0211776, Final residual = 7.98376e-05, No Iterations 8
ExecutionTime = 1.44 s  ClockTime = 1 s

Time = 13

smoothSolver:  Solving for Ux, Initial residual = 0.0383879, Final residual = 0.000145494, No Iterations 8
smoothSolver:  Solving for Uy, Initial residual = 0.0755085, Final residual = 0.000364119, No Iterations 8
GAMG:  Solving for p, Initial residual = 0.102892, Final residual = 0.000715017, No Iterations 5
time step continuity errors : sum local = 0.000271347, global = -1.6467e-17, cumulative = 1.22493e-15
smoothSolver:  Solving for nuTilda, Initial residual = 0.0189772, Final residual = 7.28656e-05, No Iterations 8
ExecutionTime = 1.53 s  ClockTime = 1 s

Time = 14

smoothSolver:  Solving for Ux, Initial residual = 0.036306, Final residual = 0.000150376, No Iterations 8
smoothSolver:  Solving for Uy, Initial residual = 0.0600106, Final residual = 0.000293853, No Iterations 8
GAMG:  Solving for p, Initial residual = 0.10453, Final residual = 0.000731321, No Iterations 6
time step continuity errors : sum local = 0.000281223, global = 3.63207e-16, cumulative = 1.58814e-15
smoothSolver:  Solving for nuTilda, Initial residual = 0.0170996, Final residual = 6.69232e-05, No Iterations 8
ExecutionTime = 1.63 s  ClockTime = 1 s

Time = 15

smoothSolver:  Solving for Ux, Initial residual = 0.0186084, Final residual = 6.60891e-05, No Iterations 8
smoothSolver:  Solving for Uy, Initial residual = 0.0178045, Final residual = 7.74778e-05, No Iterations 8
GAMG:  Solving for p, Initial residual = 0.0833777, Final residual = 0.000818617, No Iterations 5
time step continuity errors : sum local = 0.000311299, global = -6.15886e-18, cumulative = 1.58198e-15
smoothSolver:  Solving for nuTilda, Initial residual = 0.0154728, Final residual = 6.19339e-05, No Iterations 8
ExecutionTime = 1.72 s  ClockTime = 1 s

forces wings output:
    sum of forces:
        pressure : (-26.8557 14.3756 7.37484e-20)
        viscous  : (0.492942 -0.00038617 -8.87497e-21)
        porous   : (0 0 0)
    sum of moments:
        pressure : (-0.718781 -1.34279 -46.5196)
        viscous  : (1.93085e-05 0.0246471 -0.0477509)
        porous   : (0 0 0)

Time = 16

smoothSolver:  Solving for Ux, Initial residual = 0.0220387, Final residual = 8.606e-05, No Iterations 8
smoothSolver:  Solving for Uy, Initial residual = 0.0433603, Final residual = 0.000212216, No Iterations 8
GAMG:  Solving for p, Initial residual = 0.0709537, Final residual = 0.000392759, No Iterations 6
time step continuity errors : sum local = 0.00014872, global = 8.36996e-17, cumulative = 1.66568e-15
smoothSolver:  Solving for nuTilda, Initial residual = 0.014073, Final residual = 5.77077e-05, No Iterations 8
ExecutionTime = 1.82 s  ClockTime = 1 s

Time = 17

smoothSolver:  Solving for Ux, Initial residual = 0.0195948, Final residual = 8.02697e-05, No Iterations 8
smoothSolver:  Solving for Uy, Initial residual = 0.0350416, Final residual = 0.00016767, No Iterations 8
GAMG:  Solving for p, Initial residual = 0.0684286, Final residual = 0.000296976, No Iterations 6
time step continuity errors : sum local = 0.000113225, global = 4.31197e-17, cumulative = 1.7088e-15
smoothSolver:  Solving for nuTilda, Initial residual = 0.0128748, Final residual = 5.40507e-05, No Iterations 8
ExecutionTime = 1.91 s  ClockTime = 1 s

Time = 18

smoothSolver:  Solving for Ux, Initial residual = 0.011793, Final residual = 4.02755e-05, No Iterations 8
smoothSolver:  Solving for Uy, Initial residual = 0.0186087, Final residual = 8.10166e-05, No Iterations 8
GAMG:  Solving for p, Initial residual = 0.0550379, Final residual = 0.000414311, No Iterations 5
time step continuity errors : sum local = 0.000157998, global = 6.6196e-17, cumulative = 1.775e-15
smoothSolver:  Solving for nuTilda, Initial residual = 0.0118194, Final residual = 5.07557e-05, No Iterations 8
ExecutionTime = 2 s  ClockTime = 2 s

Time = 19

smoothSolver:  Solving for Ux, Initial residual = 0.0148908, Final residual = 5.76195e-05, No Iterations 8
smoothSolver:  Solving for Uy, Initial residual = 0.02874, Final residual = 0.000136037, No Iterations 8
GAMG:  Solving for p, Initial residual = 0.0479875, Final residual = 0.000440245, No Iterations 5
time step continuity errors : sum local = 0.000165578, global = 2.2898e-16, cumulative = 2.00398e-15
smoothSolver:  Solving for nuTilda, Initial residual = 0.0109072, Final residual = 4.77635e-05, No Iterations 8
ExecutionTime = 2.1 s  ClockTime = 2 s

Time = 20

smoothSolver:  Solving for Ux, Initial residual = 0.0123019, Final residual = 4.8914e-05, No Iterations 8
smoothSolver:  Solving for Uy, Initial residual = 0.0168295, Final residual = 7.92841e-05, No Iterations 8
GAMG:  Solving for p, Initial residual = 0.043509, Final residual = 0.000356543, No Iterations 5
time step continuity errors : sum local = 0.00013571, global = 4.69003e-17, cumulative = 2.05088e-15
smoothSolver:  Solving for nuTilda, Initial residual = 0.0100962, Final residual = 4.50617e-05, No Iterations 8
ExecutionTime = 2.19 s  ClockTime = 2 s

forces wings output:
    sum of forces:
        pressure : (-2.91955 5.09999 -1.18618e-19)
        viscous  : (0.479933 -0.000493838 1.80768e-21)
        porous   : (0 0 0)
    sum of moments:
        pressure : (-0.254999 -0.145977 -4.17294)
        viscous  : (2.46919e-05 0.0239966 -0.0438673)
        porous   : (0 0 0)

Time = 21

smoothSolver:  Solving for Ux, Initial residual = 0.00903642, Final residual = 3.4418e-05, No Iterations 8
smoothSolver:  Solving for Uy, Initial residual = 0.0129637, Final residual = 5.8433e-05, No Iterations 8
GAMG:  Solving for p, Initial residual = 0.0359527, Final residual = 0.000295468, No Iterations 5
time step continuity errors : sum local = 0.000112953, global = 1.04745e-16, cumulative = 2.15562e-15
smoothSolver:  Solving for nuTilda, Initial residual = 0.00938862, Final residual = 4.26559e-05, No Iterations 8
ExecutionTime = 2.28 s  ClockTime = 2 s

Time = 22

smoothSolver:  Solving for Ux, Initial residual = 0.00906377, Final residual = 3.60698e-05, No Iterations 8
smoothSolver:  Solving for Uy, Initial residual = 0.0176027, Final residual = 8.28375e-05, No Iterations 8
GAMG:  Solving for p, Initial residual = 0.0325745, Final residual = 0.000287839, No Iterations 5
time step continuity errors : sum local = 0.000109439, global = 9.15008e-17, cumulative = 2.24713e-15
smoothSolver:  Solving for nuTilda, Initial residual = 0.00877904, Final residual = 4.04883e-05, No Iterations 8
ExecutionTime = 2.38 s  ClockTime = 2 s

Time = 23

smoothSolver:  Solving for Ux, Initial residual = 0.00689289, Final residual = 2.66163e-05, No Iterations 8
smoothSolver:  Solving for Uy, Initial residual = 0.00994117, Final residual = 4.46555e-05, No Iterations 8
GAMG:  Solving for p, Initial residual = 0.0284677, Final residual = 0.00020794, No Iterations 5
time step continuity errors : sum local = 7.92223e-05, global = -3.40102e-16, cumulative = 1.90702e-15
smoothSolver:  Solving for nuTilda, Initial residual = 0.008252, Final residual = 3.85071e-05, No Iterations 8
ExecutionTime = 2.48 s  ClockTime = 2 s

Time = 24

smoothSolver:  Solving for Ux, Initial residual = 0.00582671, Final residual = 2.04182e-05, No Iterations 8
smoothSolver:  Solving for Uy, Initial residual = 0.0109519, Final residual = 4.83843e-05, No Iterations 8
GAMG:  Solving for p, Initial residual = 0.0244293, Final residual = 0.000239081, No Iterations 4
time step continuity errors : sum local = 9.0973e-05, global = -7.08803e-17, cumulative = 1.83614e-15
smoothSolver:  Solving for nuTilda, Initial residual = 0.00778503, Final residual = 3.66425e-05, No Iterations 8
ExecutionTime = 2.57 s  ClockTime = 2 s

Time = 25

smoothSolver:  Solving for Ux, Initial residual = 0.00656422, Final residual = 2.54341e-05, No Iterations 8
smoothSolver:  Solving for Uy, Initial residual = 0.0109519, Final residual = 5.03528e-05, No Iterations 8
GAMG:  Solving for p, Initial residual = 0.0223844, Final residual = 0.00016961, No Iterations 5
time step continuity errors : sum local = 6.38904e-05, global = 1.74077e-16, cumulative = 2.01022e-15
smoothSolver:  Solving for nuTilda, Initial residual = 0.00737158, Final residual = 3.49056e-05, No Iterations 8
ExecutionTime = 2.66 s  ClockTime = 2 s

forces wings output:
    sum of forces:
        pressure : (2.46972 7.58157 -1.01255e-19)
        viscous  : (0.466164 -0.000640261 3.16688e-21)
        porous   : (0 0 0)
    sum of moments:
        pressure : (-0.379078 0.123486 6.50397)
        viscous  : (3.2013e-05 0.0233082 -0.0413157)
        porous   : (0 0 0)

Time = 26

smoothSolver:  Solving for Ux, Initial residual = 0.00551448, Final residual = 2.22685e-05, No Iterations 8
smoothSolver:  Solving for Uy, Initial residual = 0.0057675, Final residual = 2.63916e-05, No Iterations 8
GAMG:  Solving for p, Initial residual = 0.0183876, Final residual = 0.000115833, No Iterations 5
time step continuity errors : sum local = 4.40007e-05, global = -1.23127e-17, cumulative = 1.99791e-15
smoothSolver:  Solving for nuTilda, Initial residual = 0.00699676, Final residual = 3.32645e-05, No Iterations 8
ExecutionTime = 2.76 s  ClockTime = 2 s

Time = 27

smoothSolver:  Solving for Ux, Initial residual = 0.00485234, Final residual = 1.97443e-05, No Iterations 8
smoothSolver:  Solving for Uy, Initial residual = 0.00718792, Final residual = 3.26622e-05, No Iterations 8
GAMG:  Solving for p, Initial residual = 0.0155607, Final residual = 0.000151082, No Iterations 5
time step continuity errors : sum local = 5.77792e-05, global = -4.83822e-17, cumulative = 1.94953e-15
smoothSolver:  Solving for nuTilda, Initial residual = 0.00666984, Final residual = 3.17759e-05, No Iterations 8
ExecutionTime = 2.85 s  ClockTime = 2 s

Time = 28

smoothSolver:  Solving for Ux, Initial residual = 0.00444536, Final residual = 1.81425e-05, No Iterations 8
smoothSolver:  Solving for Uy, Initial residual = 0.00674553, Final residual = 3.087e-05, No Iterations 8
GAMG:  Solving for p, Initial residual = 0.0146593, Final residual = 0.000114142, No Iterations 5
time step continuity errors : sum local = 4.34527e-05, global = -2.70968e-17, cumulative = 1.92243e-15
smoothSolver:  Solving for nuTilda, Initial residual = 0.00637066, Final residual = 3.03658e-05, No Iterations 8
ExecutionTime = 2.94 s  ClockTime = 2 s

Time = 29

smoothSolver:  Solving for Ux, Initial residual = 0.00380451, Final residual = 1.48143e-05, No Iterations 8
smoothSolver:  Solving for Uy, Initial residual = 0.00455415, Final residual = 2.04e-05, No Iterations 8
GAMG:  Solving for p, Initial residual = 0.0120636, Final residual = 6.19175e-05, No Iterations 5
time step continuity errors : sum local = 2.35325e-05, global = -1.30048e-16, cumulative = 1.79238e-15
smoothSolver:  Solving for nuTilda, Initial residual = 0.0061055, Final residual = 2.91053e-05, No Iterations 8
ExecutionTime = 3.03 s  ClockTime = 3 s

Time = 30

smoothSolver:  Solving for Ux, Initial residual = 0.00385542, Final residual = 1.46103e-05, No Iterations 8
smoothSolver:  Solving for Uy, Initial residual = 0.00550596, Final residual = 2.46328e-05, No Iterations 8
GAMG:  Solving for p, Initial residual = 0.0106274, Final residual = 7.10394e-05, No Iterations 5
time step continuity errors : sum local = 2.6982e-05, global = -8.15538e-17, cumulative = 1.71083e-15
smoothSolver:  Solving for nuTilda, Initial residual = 0.00584913, Final residual = 2.78644e-05, No Iterations 8
bounding nuTilda, min: -5.33538e-05 max: 0.410161 average: 0.0828917
ExecutionTime = 3.12 s  ClockTime = 3 s

forces wings output:
    sum of forces:
        pressure : (2.21134 11.8228 -8.01089e-20)
        viscous  : (0.452551 -0.000781629 2.67941e-21)
        porous   : (0 0 0)
    sum of moments:
        pressure : (-0.591139 0.110567 7.08212)
        viscous  : (3.90814e-05 0.0226276 -0.0397188)
        porous   : (0 0 0)

Time = 31

smoothSolver:  Solving for Ux, Initial residual = 0.00409704, Final residual = 1.59662e-05, No Iterations 8
smoothSolver:  Solving for Uy, Initial residual = 0.00450537, Final residual = 2.03549e-05, No Iterations 8
GAMG:  Solving for p, Initial residual = 0.00990021, Final residual = 5.94553e-05, No Iterations 5
time step continuity errors : sum local = 2.26351e-05, global = 8.18122e-17, cumulative = 1.79264e-15
smoothSolver:  Solving for nuTilda, Initial residual = 0.00562196, Final residual = 2.67602e-05, No Iterations 8
ExecutionTime = 3.22 s  ClockTime = 3 s

Time = 32

smoothSolver:  Solving for Ux, Initial residual = 0.00390806, Final residual = 1.54812e-05, No Iterations 8
smoothSolver:  Solving for Uy, Initial residual = 0.00368445, Final residual = 1.63686e-05, No Iterations 8
GAMG:  Solving for p, Initial residual = 0.00841769, Final residual = 3.61131e-05, No Iterations 5
time step continuity errors : sum local = 1.37132e-05, global = 9.44274e-17, cumulative = 1.88707e-15
smoothSolver:  Solving for nuTilda, Initial residual = 0.00539518, Final residual = 2.56487e-05, No Iterations 8
ExecutionTime = 3.31 s  ClockTime = 3 s

Time = 33

smoothSolver:  Solving for Ux, Initial residual = 0.00368809, Final residual = 1.47716e-05, No Iterations 8
smoothSolver:  Solving for Uy, Initial residual = 0.00413423, Final residual = 1.82219e-05, No Iterations 8
GAMG:  Solving for p, Initial residual = 0.00724408, Final residual = 6.08568e-05, No Iterations 5
time step continuity errors : sum local = 2.30648e-05, global = 7.45561e-17, cumulative = 1.96162e-15
smoothSolver:  Solving for nuTilda, Initial residual = 0.00519318, Final residual = 2.46848e-05, No Iterations 8
bounding nuTilda, min: -5.61967e-05 max: 0.410194 average: 0.0803345
ExecutionTime = 3.4 s  ClockTime = 3 s

Time = 34

smoothSolver:  Solving for Ux, Initial residual = 0.00339465, Final residual = 1.36474e-05, No Iterations 8
smoothSolver:  Solving for Uy, Initial residual = 0.00339291, Final residual = 1.47391e-05, No Iterations 8
GAMG:  Solving for p, Initial residual = 0.00650094, Final residual = 5.51368e-05, No Iterations 5
time step continuity errors : sum local = 2.09958e-05, global = -8.68285e-17, cumulative = 1.87479e-15
smoothSolver:  Solving for nuTilda, Initial residual = 0.00499025, Final residual = 2.37007e-05, No Iterations 8
ExecutionTime = 3.49 s  ClockTime = 3 s

Time = 35

smoothSolver:  Solving for Ux, Initial residual = 0.00315045, Final residual = 1.26025e-05, No Iterations 8
smoothSolver:  Solving for Uy, Initial residual = 0.00313539, Final residual = 1.36467e-05, No Iterations 8
GAMG:  Solving for p, Initial residual = 0.0058063, Final residual = 5.61113e-05, No Iterations 4
time step continuity errors : sum local = 2.10585e-05, global = 4.05601e-17, cumulative = 1.91535e-15
smoothSolver:  Solving for nuTilda, Initial residual = 0.00480629, Final residual = 2.28474e-05, No Iterations 8
ExecutionTime = 3.58 s  ClockTime = 3 s

forces wings output:
    sum of forces:
        pressure : (1.42461 13.3553 -6.83843e-20)
        viscous  : (0.438549 -0.000877425 2.30897e-21)
        porous   : (0 0 0)
    sum of moments:
        pressure : (-0.667767 0.0712307 5.99721)
        viscous  : (4.38713e-05 0.0219275 -0.0384321)
        porous   : (0 0 0)

Time = 36

smoothSolver:  Solving for Ux, Initial residual = 0.00310583, Final residual = 1.25074e-05, No Iterations 8
smoothSolver:  Solving for Uy, Initial residual = 0.00301643, Final residual = 1.34313e-05, No Iterations 8
GAMG:  Solving for p, Initial residual = 0.00522161, Final residual = 4.12689e-05, No Iterations 5
time step continuity errors : sum local = 1.56416e-05, global = -7.90192e-17, cumulative = 1.83633e-15
smoothSolver:  Solving for nuTilda, Initial residual = 0.00461999, Final residual = 2.19647e-05, No Iterations 8
bounding nuTilda, min: -0.00014355 max: 0.410205 average: 0.0779507
ExecutionTime = 3.67 s  ClockTime = 3 s

Time = 37

smoothSolver:  Solving for Ux, Initial residual = 0.0030897, Final residual = 1.25681e-05, No Iterations 8
smoothSolver:  Solving for Uy, Initial residual = 0.00235595, Final residual = 1.07693e-05, No Iterations 8
GAMG:  Solving for p, Initial residual = 0.00459279, Final residual = 3.28875e-05, No Iterations 5
time step continuity errors : sum local = 1.25088e-05, global = -3.19543e-18, cumulative = 1.83314e-15
smoothSolver:  Solving for nuTilda, Initial residual = 0.00445159, Final residual = 2.11903e-05, No Iterations 8
ExecutionTime = 3.77 s  ClockTime = 3 s

Time = 38

smoothSolver:  Solving for Ux, Initial residual = 0.00299834, Final residual = 1.2246e-05, No Iterations 8
smoothSolver:  Solving for Uy, Initial residual = 0.00238063, Final residual = 1.09054e-05, No Iterations 8
GAMG:  Solving for p, Initial residual = 0.0041701, Final residual = 3.56233e-05, No Iterations 4
time step continuity errors : sum local = 1.35143e-05, global = 2.32396e-16, cumulative = 2.06554e-15
smoothSolver:  Solving for nuTilda, Initial residual = 0.00428341, Final residual = 2.04013e-05, No Iterations 8
ExecutionTime = 3.86 s  ClockTime = 3 s

Time = 39

smoothSolver:  Solving for Ux, Initial residual = 0.00288366, Final residual = 1.17493e-05, No Iterations 8
smoothSolver:  Solving for Uy, Initial residual = 0.00236442, Final residual = 1.08624e-05, No Iterations 8
GAMG:  Solving for p, Initial residual = 0.00368363, Final residual = 2.52648e-05, No Iterations 5
time step continuity errors : sum local = 9.57816e-06, global = 1.80127e-16, cumulative = 2.24566e-15
smoothSolver:  Solving for nuTilda, Initial residual = 0.00413033, Final residual = 1.96991e-05, No Iterations 8
bounding nuTilda, min: -0.000209523 max: 0.410184 average: 0.0757266
ExecutionTime = 3.95 s  ClockTime = 4 s

Time = 40

smoothSolver:  Solving for Ux, Initial residual = 0.00276793, Final residual = 1.12574e-05, No Iterations 8
smoothSolver:  Solving for Uy, Initial residual = 0.00214186, Final residual = 9.79012e-06, No Iterations 8
GAMG:  Solving for p, Initial residual = 0.00310115, Final residual = 2.64672e-05, No Iterations 5
time step continuity errors : sum local = 1.00735e-05, global = 9.71467e-17, cumulative = 2.34281e-15
smoothSolver:  Solving for nuTilda, Initial residual = 0.00398221, Final residual = 1.89961e-05, No Iterations 8
ExecutionTime = 4.04 s  ClockTime = 4 s

forces wings output:
    sum of forces:
        pressure : (0.99407 13.0167 -5.96322e-20)
        viscous  : (0.425881 -0.00102671 2.0778e-21)
        porous   : (0 0 0)
    sum of moments:
        pressure : (-0.650834 0.0497035 5.10914)
        viscous  : (5.13354e-05 0.0212941 -0.0373739)
        porous   : (0 0 0)

Time = 41

smoothSolver:  Solving for Ux, Initial residual = 0.0027036, Final residual = 1.09979e-05, No Iterations 8
smoothSolver:  Solving for Uy, Initial residual = 0.0020819, Final residual = 9.44883e-06, No Iterations 8
GAMG:  Solving for p, Initial residual = 0.00291759, Final residual = 2.7933e-05, No Iterations 4
time step continuity errors : sum local = 1.04994e-05, global = -1.03696e-18, cumulative = 2.34177e-15
smoothSolver:  Solving for nuTilda, Initial residual = 0.00384718, Final residual = 1.83607e-05, No Iterations 8
bounding nuTilda, min: -1.86387e-05 max: 0.410169 average: 0.074321
ExecutionTime = 4.14 s  ClockTime = 4 s

Time = 42

smoothSolver:  Solving for Ux, Initial residual = 0.0026808, Final residual = 1.09499e-05, No Iterations 8
smoothSolver:  Solving for Uy, Initial residual = 0.00189297, Final residual = 8.75002e-06, No Iterations 8
GAMG:  Solving for p, Initial residual = 0.00272351, Final residual = 1.37541e-05, No Iterations 5
time step continuity errors : sum local = 5.22305e-06, global = -1.36232e-16, cumulative = 2.20554e-15
smoothSolver:  Solving for nuTilda, Initial residual = 0.00371522, Final residual = 1.77345e-05, No Iterations 8
ExecutionTime = 4.23 s  ClockTime = 4 s

Time = 43

smoothSolver:  Solving for Ux, Initial residual = 0.00264633, Final residual = 1.08271e-05, No Iterations 8
smoothSolver:  Solving for Uy, Initial residual = 0.00177658, Final residual = 8.31309e-06, No Iterations 8
GAMG:  Solving for p, Initial residual = 0.00232885, Final residual = 2.23012e-05, No Iterations 4
time step continuity errors : sum local = 8.37968e-06, global = -1.14942e-16, cumulative = 2.0906e-15
smoothSolver:  Solving for nuTilda, Initial residual = 0.00359186, Final residual = 1.71555e-05, No Iterations 8
bounding nuTilda, min: -3.89283e-05 max: 0.41016 average: 0.072973
ExecutionTime = 4.32 s  ClockTime = 4 s

Time = 44

smoothSolver:  Solving for Ux, Initial residual = 0.00258187, Final residual = 1.05425e-05, No Iterations 8
smoothSolver:  Solving for Uy, Initial residual = 0.00184927, Final residual = 8.62599e-06, No Iterations 8
GAMG:  Solving for p, Initial residual = 0.00213407, Final residual = 2.12303e-05, No Iterations 4
time step continuity errors : sum local = 8.05137e-06, global = -2.30898e-16, cumulative = 1.8597e-15
smoothSolver:  Solving for nuTilda, Initial residual = 0.00347226, Final residual = 1.65909e-05, No Iterations 8
ExecutionTime = 4.4 s  ClockTime = 4 s

Time = 45

smoothSolver:  Solving for Ux, Initial residual = 0.00251029, Final residual = 1.02237e-05, No Iterations 8
smoothSolver:  Solving for Uy, Initial residual = 0.00182183, Final residual = 8.53903e-06, No Iterations 8
GAMG:  Solving for p, Initial residual = 0.00201465, Final residual = 1.61529e-05, No Iterations 5
time step continuity errors : sum local = 6.1659e-06, global = -8.19471e-17, cumulative = 1.77775e-15
smoothSolver:  Solving for nuTilda, Initial residual = 0.00335946, Final residual = 1.60633e-05, No Iterations 8
bounding nuTilda, min: -5.17727e-05 max: 0.410154 average: 0.0716787
ExecutionTime = 4.49 s  ClockTime = 4 s

forces wings output:
    sum of forces:
        pressure : (0.902322 12.6425 -5.46211e-20)
        viscous  : (0.412972 -0.00108256 2.08671e-21)
        porous   : (0 0 0)
    sum of moments:
        pressure : (-0.632124 0.0451161 4.84439)
        viscous  : (5.41279e-05 0.0206486 -0.0362576)
        porous   : (0 0 0)

Time = 46

smoothSolver:  Solving for Ux, Initial residual = 0.00245472, Final residual = 9.98305e-06, No Iterations 8
smoothSolver:  Solving for Uy, Initial residual = 0.00177538, Final residual = 8.32754e-06, No Iterations 8
GAMG:  Solving for p, Initial residual = 0.00179237, Final residual = 1.63992e-05, No Iterations 5
time step continuity errors : sum local = 6.23399e-06, global = 1.54707e-16, cumulative = 1.93246e-15
smoothSolver:  Solving for nuTilda, Initial residual = 0.00325131, Final residual = 1.55548e-05, No Iterations 8
ExecutionTime = 4.59 s  ClockTime = 4 s

Time = 47

smoothSolver:  Solving for Ux, Initial residual = 0.00242731, Final residual = 9.88561e-06, No Iterations 8
smoothSolver:  Solving for Uy, Initial residual = 0.00171598, Final residual = 8.02508e-06, No Iterations 8
GAMG:  Solving for p, Initial residual = 0.00165773, Final residual = 1.25793e-05, No Iterations 5
time step continuity errors : sum local = 4.77707e-06, global = -2.12427e-16, cumulative = 1.72003e-15
smoothSolver:  Solving for nuTilda, Initial residual = 0.00314933, Final residual = 1.50723e-05, No Iterations 8
bounding nuTilda, min: -6.29497e-05 max: 0.410154 average: 0.0704347
ExecutionTime = 4.68 s  ClockTime = 4 s

Time = 48

smoothSolver:  Solving for Ux, Initial residual = 0.00241178, Final residual = 9.83645e-06, No Iterations 8
smoothSolver:  Solving for Uy, Initial residual = 0.00165019, Final residual = 7.77059e-06, No Iterations 8
GAMG:  Solving for p, Initial residual = 0.00161699, Final residual = 1.43386e-05, No Iterations 4
time step continuity errors : sum local = 5.43548e-06, global = 2.3993e-16, cumulative = 1.95996e-15
smoothSolver:  Solving for nuTilda, Initial residual = 0.00305202, Final residual = 1.46094e-05, No Iterations 8
ExecutionTime = 4.77 s  ClockTime = 4 s

Time = 49

smoothSolver:  Solving for Ux, Initial residual = 0.00238543, Final residual = 9.72156e-06, No Iterations 8
smoothSolver:  Solving for Uy, Initial residual = 0.00164873, Final residual = 7.82856e-06, No Iterations 8
GAMG:  Solving for p, Initial residual = 0.00156059, Final residual = 1.22509e-05, No Iterations 4
time step continuity errors : sum local = 4.63597e-06, global = 7.01727e-17, cumulative = 2.03014e-15
smoothSolver:  Solving for nuTilda, Initial residual = 0.00295936, Final residual = 1.41667e-05, No Iterations 8
bounding nuTilda, min: -7.12954e-05 max: 0.410158 average: 0.0692378
ExecutionTime = 4.86 s  ClockTime = 4 s

Time = 50

smoothSolver:  Solving for Ux, Initial residual = 0.00234327, Final residual = 9.52517e-06, No Iterations 8
smoothSolver:  Solving for Uy, Initial residual = 0.00168036, Final residual = 7.98181e-06, No Iterations 8
GAMG:  Solving for p, Initial residual = 0.00149626, Final residual = 1.22923e-05, No Iterations 4
time step continuity errors : sum local = 4.66839e-06, global = -1.87753e-17, cumulative = 2.01136e-15
smoothSolver:  Solving for nuTilda, Initial residual = 0.00287127, Final residual = 1.37433e-05, No Iterations 8
ExecutionTime = 4.95 s  ClockTime = 5 s

forces wings output:
    sum of forces:
        pressure : (0.904633 12.7288 -4.63188e-20)
        viscous  : (0.400986 -0.00119134 2.04437e-21)
        porous   : (0 0 0)
    sum of moments:
        pressure : (-0.636442 0.0452316 4.87029)
        viscous  : (5.9567e-05 0.0200493 -0.0352287)
        porous   : (0 0 0)

Time = 51

smoothSolver:  Solving for Ux, Initial residual = 0.00229719, Final residual = 9.32369e-06, No Iterations 8
smoothSolver:  Solving for Uy, Initial residual = 0.00169619, Final residual = 8.00323e-06, No Iterations 8
GAMG:  Solving for p, Initial residual = 0.00145971, Final residual = 1.39519e-05, No Iterations 4
time step continuity errors : sum local = 5.27305e-06, global = -1.75692e-16, cumulative = 1.83567e-15
smoothSolver:  Solving for nuTilda, Initial residual = 0.00278752, Final residual = 1.33382e-05, No Iterations 8
bounding nuTilda, min: -7.77684e-05 max: 0.410163 average: 0.0680851
ExecutionTime = 5.04 s  ClockTime = 5 s

Time = 52

smoothSolver:  Solving for Ux, Initial residual = 0.00226095, Final residual = 9.18181e-06, No Iterations 8
smoothSolver:  Solving for Uy, Initial residual = 0.00167501, Final residual = 7.89465e-06, No Iterations 8
GAMG:  Solving for p, Initial residual = 0.00141183, Final residual = 1.15316e-05, No Iterations 5
time step continuity errors : sum local = 4.37623e-06, global = 2.00065e-18, cumulative = 1.83767e-15
smoothSolver:  Solving for nuTilda, Initial residual = 0.00270809, Final residual = 1.29505e-05, No Iterations 8
ExecutionTime = 5.13 s  ClockTime = 5 s

Time = 53

smoothSolver:  Solving for Ux, Initial residual = 0.00223912, Final residual = 9.11354e-06, No Iterations 8
smoothSolver:  Solving for Uy, Initial residual = 0.00163265, Final residual = 7.71888e-06, No Iterations 8
GAMG:  Solving for p, Initial residual = 0.00138824, Final residual = 1.03429e-05, No Iterations 5
time step continuity errors : sum local = 3.92068e-06, global = 4.45444e-17, cumulative = 1.88221e-15
smoothSolver:  Solving for nuTilda, Initial residual = 0.00263168, Final residual = 1.25775e-05, No Iterations 8
bounding nuTilda, min: -8.31139e-05 max: 0.410169 average: 0.066974
ExecutionTime = 5.23 s  ClockTime = 5 s

Time = 54

smoothSolver:  Solving for Ux, Initial residual = 0.00222154, Final residual = 9.06085e-06, No Iterations 8
smoothSolver:  Solving for Uy, Initial residual = 0.00160989, Final residual = 7.62209e-06, No Iterations 8
GAMG:  Solving for p, Initial residual = 0.00136963, Final residual = 7.27947e-06, No Iterations 5
time step continuity errors : sum local = 2.75325e-06, global = -3.80763e-17, cumulative = 1.84414e-15
smoothSolver:  Solving for nuTilda, Initial residual = 0.002559, Final residual = 1.22201e-05, No Iterations 8
ExecutionTime = 5.32 s  ClockTime = 5 s

Time = 55

smoothSolver:  Solving for Ux, Initial residual = 0.00219844, Final residual = 8.97688e-06, No Iterations 8
smoothSolver:  Solving for Uy, Initial residual = 0.00161147, Final residual = 7.64234e-06, No Iterations 8
GAMG:  Solving for p, Initial residual = 0.00135358, Final residual = 1.29282e-05, No Iterations 4
time step continuity errors : sum local = 4.87353e-06, global = 2.70061e-16, cumulative = 2.1142e-15
smoothSolver:  Solving for nuTilda, Initial residual = 0.00248943, Final residual = 1.18757e-05, No Iterations 8
bounding nuTilda, min: -8.66882e-05 max: 0.410175 average: 0.0659023
ExecutionTime = 5.41 s  ClockTime = 5 s

forces wings output:
    sum of forces:
        pressure : (0.906979 13.0897 -3.99979e-20)
        viscous  : (0.389443 -0.00124483 2.04265e-21)
        porous   : (0 0 0)
    sum of moments:
        pressure : (-0.654486 0.0453489 4.96489)
        viscous  : (6.22415e-05 0.0194721 -0.0342199)
        porous   : (0 0 0)

Time = 56

smoothSolver:  Solving for Ux, Initial residual = 0.00216808, Final residual = 8.85684e-06, No Iterations 8
smoothSolver:  Solving for Uy, Initial residual = 0.001622, Final residual = 7.69071e-06, No Iterations 8
GAMG:  Solving for p, Initial residual = 0.00132738, Final residual = 7.39596e-06, No Iterations 5
time step continuity errors : sum local = 2.79339e-06, global = 1.45179e-16, cumulative = 2.25938e-15
smoothSolver:  Solving for nuTilda, Initial residual = 0.00242307, Final residual = 1.15449e-05, No Iterations 8
ExecutionTime = 5.51 s  ClockTime = 5 s

Time = 57

smoothSolver:  Solving for Ux, Initial residual = 0.00213725, Final residual = 8.73633e-06, No Iterations 8
smoothSolver:  Solving for Uy, Initial residual = 0.00163222, Final residual = 7.72477e-06, No Iterations 8
GAMG:  Solving for p, Initial residual = 0.00130542, Final residual = 8.72222e-06, No Iterations 5
time step continuity errors : sum local = 3.30424e-06, global = 1.23454e-16, cumulative = 2.38283e-15
smoothSolver:  Solving for nuTilda, Initial residual = 0.0023593, Final residual = 1.12259e-05, No Iterations 8
bounding nuTilda, min: -8.89455e-05 max: 0.410181 average: 0.0648676
ExecutionTime = 5.6 s  ClockTime = 5 s

Time = 58

smoothSolver:  Solving for Ux, Initial residual = 0.00211142, Final residual = 8.63609e-06, No Iterations 8
smoothSolver:  Solving for Uy, Initial residual = 0.00162553, Final residual = 7.68238e-06, No Iterations 8
GAMG:  Solving for p, Initial residual = 0.00128312, Final residual = 9.49245e-06, No Iterations 5
time step continuity errors : sum local = 3.60306e-06, global = 1.33281e-16, cumulative = 2.51611e-15
smoothSolver:  Solving for nuTilda, Initial residual = 0.00229761, Final residual = 1.0919e-05, No Iterations 8
ExecutionTime = 5.69 s  ClockTime = 5 s

Time = 59

smoothSolver:  Solving for Ux, Initial residual = 0.00209139, Final residual = 8.55944e-06, No Iterations 8
smoothSolver:  Solving for Uy, Initial residual = 0.00160682, Final residual = 7.59359e-06, No Iterations 8
GAMG:  Solving for p, Initial residual = 0.00126218, Final residual = 7.51105e-06, No Iterations 5
time step continuity errors : sum local = 2.84991e-06, global = 9.01318e-17, cumulative = 2.60624e-15
smoothSolver:  Solving for nuTilda, Initial residual = 0.00223821, Final residual = 1.06231e-05, No Iterations 8
bounding nuTilda, min: -9.03937e-05 max: 0.410188 average: 0.0638681
ExecutionTime = 5.79 s  ClockTime = 5 s

Time = 60

smoothSolver:  Solving for Ux, Initial residual = 0.00207314, Final residual = 8.48972e-06, No Iterations 8
smoothSolver:  Solving for Uy, Initial residual = 0.0015907, Final residual = 7.52467e-06, No Iterations 8
GAMG:  Solving for p, Initial residual = 0.00124628, Final residual = 7.20019e-06, No Iterations 5
time step continuity errors : sum local = 2.71562e-06, global = 1.28582e-16, cumulative = 2.73482e-15
smoothSolver:  Solving for nuTilda, Initial residual = 0.00218116, Final residual = 1.03388e-05, No Iterations 8
ExecutionTime = 5.87 s  ClockTime = 5 s

forces wings output:
    sum of forces:
        pressure : (0.90649 13.3446 -3.5286e-20)
        viscous  : (0.378353 -0.00130703 2.07571e-21)
        porous   : (0 0 0)
    sum of moments:
        pressure : (-0.667231 0.0453245 5.0277)
        viscous  : (6.53513e-05 0.0189176 -0.0332495)
        porous   : (0 0 0)

Time = 61

smoothSolver:  Solving for Ux, Initial residual = 0.00205339, Final residual = 8.41232e-06, No Iterations 8
smoothSolver:  Solving for Uy, Initial residual = 0.00158507, Final residual = 7.50485e-06, No Iterations 8
GAMG:  Solving for p, Initial residual = 0.00123447, Final residual = 7.13927e-06, No Iterations 5
time step continuity errors : sum local = 2.68549e-06, global = 6.38768e-17, cumulative = 2.7987e-15
smoothSolver:  Solving for nuTilda, Initial residual = 0.00212622, Final residual = 1.0065e-05, No Iterations 8
bounding nuTilda, min: -9.08741e-05 max: 0.410195 average: 0.0629021
ExecutionTime = 5.97 s  ClockTime = 6 s

Time = 62

smoothSolver:  Solving for Ux, Initial residual = 0.00203084, Final residual = 8.32053e-06, No Iterations 8
smoothSolver:  Solving for Uy, Initial residual = 0.00158788, Final residual = 7.51627e-06, No Iterations 8
GAMG:  Solving for p, Initial residual = 0.00121747, Final residual = 6.8602e-06, No Iterations 5
time step continuity errors : sum local = 2.58151e-06, global = -3.41292e-16, cumulative = 2.45741e-15
smoothSolver:  Solving for nuTilda, Initial residual = 0.00207332, Final residual = 9.80121e-06, No Iterations 8
ExecutionTime = 6.06 s  ClockTime = 6 s

Time = 63

smoothSolver:  Solving for Ux, Initial residual = 0.0020076, Final residual = 8.22594e-06, No Iterations 8
smoothSolver:  Solving for Uy, Initial residual = 0.00159063, Final residual = 7.5216e-06, No Iterations 8
GAMG:  Solving for p, Initial residual = 0.001198, Final residual = 7.8808e-06, No Iterations 5
time step continuity errors : sum local = 2.991e-06, global = 5.53399e-17, cumulative = 2.51275e-15
smoothSolver:  Solving for nuTilda, Initial residual = 0.00202232, Final residual = 9.54657e-06, No Iterations 8
bounding nuTilda, min: -9.05676e-05 max: 0.410201 average: 0.0619677
ExecutionTime = 6.16 s  ClockTime = 6 s

Time = 64

smoothSolver:  Solving for Ux, Initial residual = 0.00198619, Final residual = 8.13828e-06, No Iterations 8
smoothSolver:  Solving for Uy, Initial residual = 0.00158639, Final residual = 7.49381e-06, No Iterations 8
GAMG:  Solving for p, Initial residual = 0.00117946, Final residual = 9.52688e-06, No Iterations 5
time step continuity errors : sum local = 3.61022e-06, global = -9.29962e-17, cumulative = 2.41975e-15
smoothSolver:  Solving for nuTilda, Initial residual = 0.00197332, Final residual = 9.30075e-06, No Iterations 8
ExecutionTime = 6.25 s  ClockTime = 6 s

Time = 65

smoothSolver:  Solving for Ux, Initial residual = 0.00196718, Final residual = 8.06207e-06, No Iterations 8
smoothSolver:  Solving for Uy, Initial residual = 0.00157665, Final residual = 7.44721e-06, No Iterations 8
GAMG:  Solving for p, Initial residual = 0.0011644, Final residual = 8.22028e-06, No Iterations 5
time step continuity errors : sum local = 3.12379e-06, global = -6.71547e-17, cumulative = 2.3526e-15
smoothSolver:  Solving for nuTilda, Initial residual = 0.00192612, Final residual = 9.06293e-06, No Iterations 8
bounding nuTilda, min: -8.98198e-05 max: 0.410207 average: 0.0610634
ExecutionTime = 6.34 s  ClockTime = 6 s

forces wings output:
    sum of forces:
        pressure : (0.910603 13.4911 -3.17616e-20)
        viscous  : (0.367774 -0.00134942 2.12212e-21)
        porous   : (0 0 0)
    sum of moments:
        pressure : (-0.674553 0.0455302 5.07199)
        viscous  : (6.74709e-05 0.0183887 -0.0323215)
        porous   : (0 0 0)

Time = 66

smoothSolver:  Solving for Ux, Initial residual = 0.00194953, Final residual = 7.99311e-06, No Iterations 8
smoothSolver:  Solving for Uy, Initial residual = 0.00156598, Final residual = 7.40189e-06, No Iterations 8
GAMG:  Solving for p, Initial residual = 0.00115193, Final residual = 8.73723e-06, No Iterations 5
time step continuity errors : sum local = 3.31949e-06, global = -7.94295e-17, cumulative = 2.27317e-15
smoothSolver:  Solving for nuTilda, Initial residual = 0.0018804, Final residual = 8.83243e-06, No Iterations 8
ExecutionTime = 6.44 s  ClockTime = 6 s

Time = 67

smoothSolver:  Solving for Ux, Initial residual = 0.00193134, Final residual = 7.92059e-06, No Iterations 8
smoothSolver:  Solving for Uy, Initial residual = 0.0015601, Final residual = 7.37716e-06, No Iterations 8
GAMG:  Solving for p, Initial residual = 0.00113805, Final residual = 8.058e-06, No Iterations 5
time step continuity errors : sum local = 3.03524e-06, global = 2.00271e-16, cumulative = 2.47344e-15
smoothSolver:  Solving for nuTilda, Initial residual = 0.0018361, Final residual = 8.60867e-06, No Iterations 8
bounding nuTilda, min: -8.86323e-05 max: 0.410212 average: 0.060188
ExecutionTime = 6.53 s  ClockTime = 6 s

Time = 68

smoothSolver:  Solving for Ux, Initial residual = 0.00191282, Final residual = 7.84621e-06, No Iterations 8
smoothSolver:  Solving for Uy, Initial residual = 0.00155757, Final residual = 7.36741e-06, No Iterations 8
GAMG:  Solving for p, Initial residual = 0.00112208, Final residual = 9.12002e-06, No Iterations 5
time step continuity errors : sum local = 3.43498e-06, global = -1.00756e-16, cumulative = 2.37268e-15
smoothSolver:  Solving for nuTilda, Initial residual = 0.00179346, Final residual = 8.39215e-06, No Iterations 8
ExecutionTime = 6.62 s  ClockTime = 6 s

Time = 69

smoothSolver:  Solving for Ux, Initial residual = 0.00189364, Final residual = 7.7663e-06, No Iterations 8
smoothSolver:  Solving for Uy, Initial residual = 0.00155705, Final residual = 7.36115e-06, No Iterations 8
GAMG:  Solving for p, Initial residual = 0.00110493, Final residual = 8.28751e-06, No Iterations 5
time step continuity errors : sum local = 3.14028e-06, global = -2.00433e-16, cumulative = 2.17225e-15
smoothSolver:  Solving for nuTilda, Initial residual = 0.00175186, Final residual = 8.1824e-06, No Iterations 8
bounding nuTilda, min: -8.70306e-05 max: 0.410217 average: 0.05934
ExecutionTime = 6.71 s  ClockTime = 6 s

Time = 70

smoothSolver:  Solving for Ux, Initial residual = 0.00187503, Final residual = 7.68772e-06, No Iterations 8
smoothSolver:  Solving for Uy, Initial residual = 0.00155476, Final residual = 7.34516e-06, No Iterations 8
GAMG:  Solving for p, Initial residual = 0.00108778, Final residual = 8.86333e-06, No Iterations 5
time step continuity errors : sum local = 3.36463e-06, global = 2.2703e-16, cumulative = 2.39928e-15
smoothSolver:  Solving for nuTilda, Initial residual = 0.00171118, Final residual = 7.97913e-06, No Iterations 8
ExecutionTime = 6.8 s  ClockTime = 6 s

forces wings output:
    sum of forces:
        pressure : (0.915925 13.6472 -2.86961e-20)
        viscous  : (0.357679 -0.00137878 2.17646e-21)
        porous   : (0 0 0)
    sum of moments:
        pressure : (-0.68236 0.0457963 5.12095)
        viscous  : (6.8939e-05 0.017884 -0.0314337)
        porous   : (0 0 0)

Time = 71

smoothSolver:  Solving for Ux, Initial residual = 0.00185824, Final residual = 7.61729e-06, No Iterations 8
smoothSolver:  Solving for Uy, Initial residual = 0.00154967, Final residual = 7.32014e-06, No Iterations 8
GAMG:  Solving for p, Initial residual = 0.00107336, Final residual = 9.34919e-06, No Iterations 5
time step continuity errors : sum local = 3.55645e-06, global = 1.8633e-17, cumulative = 2.41791e-15
smoothSolver:  Solving for nuTilda, Initial residual = 0.00167153, Final residual = 7.78217e-06, No Iterations 8
bounding nuTilda, min: -8.52815e-05 max: 0.410222 average: 0.0585182
ExecutionTime = 6.9 s  ClockTime = 6 s

Time = 72

smoothSolver:  Solving for Ux, Initial residual = 0.00184284, Final residual = 7.55356e-06, No Iterations 8
smoothSolver:  Solving for Uy, Initial residual = 0.00154305, Final residual = 7.29068e-06, No Iterations 8
GAMG:  Solving for p, Initial residual = 0.00106013, Final residual = 6.70769e-06, No Iterations 6
time step continuity errors : sum local = 2.55084e-06, global = 2.09915e-16, cumulative = 2.62783e-15
smoothSolver:  Solving for nuTilda, Initial residual = 0.00163316, Final residual = 7.5912e-06, No Iterations 8
ExecutionTime = 6.99 s  ClockTime = 7 s

Time = 73

smoothSolver:  Solving for Ux, Initial residual = 0.00182768, Final residual = 7.49084e-06, No Iterations 8
smoothSolver:  Solving for Uy, Initial residual = 0.00153752, Final residual = 7.26659e-06, No Iterations 8
GAMG:  Solving for p, Initial residual = 0.00104709, Final residual = 9.40225e-06, No Iterations 5
time step continuity errors : sum local = 3.5733e-06, global = -8.08079e-17, cumulative = 2.54702e-15
smoothSolver:  Solving for nuTilda, Initial residual = 0.00159606, Final residual = 7.40597e-06, No Iterations 8
bounding nuTilda, min: -8.34674e-05 max: 0.410227 average: 0.0577215
ExecutionTime = 7.09 s  ClockTime = 7 s

Time = 74

smoothSolver:  Solving for Ux, Initial residual = 0.00181178, Final residual = 7.42135e-06, No Iterations 8
smoothSolver:  Solving for Uy, Initial residual = 0.00153449, Final residual = 7.24907e-06, No Iterations 8
GAMG:  Solving for p, Initial residual = 0.00103234, Final residual = 9.39933e-06, No Iterations 5
time step continuity errors : sum local = 3.56968e-06, global = -9.76293e-17, cumulative = 2.44939e-15
smoothSolver:  Solving for nuTilda, Initial residual = 0.0015601, Final residual = 7.22647e-06, No Iterations 8
ExecutionTime = 7.18 s  ClockTime = 7 s

Time = 75

smoothSolver:  Solving for Ux, Initial residual = 0.00179597, Final residual = 7.35135e-06, No Iterations 8
smoothSolver:  Solving for Uy, Initial residual = 0.00153264, Final residual = 7.23664e-06, No Iterations 8
GAMG:  Solving for p, Initial residual = 0.00101802, Final residual = 9.54286e-06, No Iterations 5
time step continuity errors : sum local = 3.62502e-06, global = 7.75174e-17, cumulative = 2.52691e-15
smoothSolver:  Solving for nuTilda, Initial residual = 0.00152525, Final residual = 7.05265e-06, No Iterations 8
bounding nuTilda, min: -8.15947e-05 max: 0.410232 average: 0.0569488
ExecutionTime = 7.27 s  ClockTime = 7 s

forces wings output:
    sum of forces:
        pressure : (0.920269 13.8603 -2.60881e-20)
        viscous  : (0.348077 -0.00138551 2.25894e-21)
        porous   : (0 0 0)
    sum of moments:
        pressure : (-0.693016 0.0460134 5.18233)
        viscous  : (6.92753e-05 0.0174038 -0.0305864)
        porous   : (0 0 0)

Time = 76

smoothSolver:  Solving for Ux, Initial residual = 0.00178111, Final residual = 7.28509e-06, No Iterations 8
smoothSolver:  Solving for Uy, Initial residual = 0.00153058, Final residual = 7.22466e-06, No Iterations 8
GAMG:  Solving for p, Initial residual = 0.0010044, Final residual = 9.72156e-06, No Iterations 5
time step continuity errors : sum local = 3.6958e-06, global = -6.37232e-17, cumulative = 2.46319e-15
smoothSolver:  Solving for nuTilda, Initial residual = 0.00149146, Final residual = 6.88438e-06, No Iterations 8
ExecutionTime = 7.37 s  ClockTime = 7 s

Time = 77

smoothSolver:  Solving for Ux, Initial residual = 0.00176723, Final residual = 7.2228e-06, No Iterations 8
smoothSolver:  Solving for Uy, Initial residual = 0.00152733, Final residual = 7.20989e-06, No Iterations 8
GAMG:  Solving for p, Initial residual = 0.000993237, Final residual = 9.79216e-06, No Iterations 5
time step continuity errors : sum local = 3.72544e-06, global = -1.66687e-17, cumulative = 2.44652e-15
smoothSolver:  Solving for nuTilda, Initial residual = 0.00145867, Final residual = 6.72152e-06, No Iterations 8
bounding nuTilda, min: -7.98218e-05 max: 0.410237 average: 0.056199
ExecutionTime = 7.46 s  ClockTime = 7 s

Time = 78

smoothSolver:  Solving for Ux, Initial residual = 0.00175389, Final residual = 7.16315e-06, No Iterations 8
smoothSolver:  Solving for Uy, Initial residual = 0.0015231, Final residual = 7.19074e-06, No Iterations 8
GAMG:  Solving for p, Initial residual = 0.000983069, Final residual = 6.23148e-06, No Iterations 6
time step continuity errors : sum local = 2.36752e-06, global = -5.70532e-18, cumulative = 2.44081e-15
smoothSolver:  Solving for nuTilda, Initial residual = 0.00142678, Final residual = 6.56354e-06, No Iterations 8
ExecutionTime = 7.56 s  ClockTime = 7 s

Time = 79

smoothSolver:  Solving for Ux, Initial residual = 0.00174093, Final residual = 7.10599e-06, No Iterations 8
smoothSolver:  Solving for Uy, Initial residual = 0.00151854, Final residual = 7.17149e-06, No Iterations 8
GAMG:  Solving for p, Initial residual = 0.000974945, Final residual = 8.97524e-06, No Iterations 5
time step continuity errors : sum local = 3.40712e-06, global = -1.84009e-17, cumulative = 2.42241e-15
smoothSolver:  Solving for nuTilda, Initial residual = 0.00139558, Final residual = 6.4097e-06, No Iterations 8
bounding nuTilda, min: -7.82202e-05 max: 0.410242 average: 0.0554712
ExecutionTime = 7.65 s  ClockTime = 7 s

Time = 80

smoothSolver:  Solving for Ux, Initial residual = 0.00172746, Final residual = 7.04394e-06, No Iterations 8
smoothSolver:  Solving for Uy, Initial residual = 0.00151574, Final residual = 7.1553e-06, No Iterations 8
GAMG:  Solving for p, Initial residual = 0.000965363, Final residual = 9.12121e-06, No Iterations 5
time step continuity errors : sum local = 3.46291e-06, global = 8.25412e-17, cumulative = 2.50495e-15
smoothSolver:  Solving for nuTilda, Initial residual = 0.0013652, Final residual = 6.26022e-06, No Iterations 8
ExecutionTime = 7.74 s  ClockTime = 7 s

forces wings output:
    sum of forces:
        pressure : (0.923782 14.0827 -2.37906e-20)
        viscous  : (0.338948 -0.00137616 2.41027e-21)
        porous   : (0 0 0)
    sum of moments:
        pressure : (-0.704136 0.0461891 5.24449)
        viscous  : (6.88079e-05 0.0169474 -0.0297779)
        porous   : (0 0 0)

Time = 81

smoothSolver:  Solving for Ux, Initial residual = 0.00171436, Final residual = 6.98313e-06, No Iterations 8
smoothSolver:  Solving for Uy, Initial residual = 0.00151372, Final residual = 7.14346e-06, No Iterations 8
GAMG:  Solving for p, Initial residual = 0.000957581, Final residual = 6.1259e-06, No Iterations 6
time step continuity errors : sum local = 2.33103e-06, global = 1.21321e-17, cumulative = 2.51709e-15
smoothSolver:  Solving for nuTilda, Initial residual = 0.00133555, Final residual = 6.11493e-06, No Iterations 8
bounding nuTilda, min: -7.68006e-05 max: 0.410247 average: 0.0547645
ExecutionTime = 7.84 s  ClockTime = 7 s

Time = 82

smoothSolver:  Solving for Ux, Initial residual = 0.00170225, Final residual = 6.92794e-06, No Iterations 8
smoothSolver:  Solving for Uy, Initial residual = 0.0015113, Final residual = 7.13458e-06, No Iterations 8
GAMG:  Solving for p, Initial residual = 0.000950301, Final residual = 8.94839e-06, No Iterations 5
time step continuity errors : sum local = 3.39781e-06, global = -2.12452e-16, cumulative = 2.30463e-15
smoothSolver:  Solving for nuTilda, Initial residual = 0.00130662, Final residual = 5.97357e-06, No Iterations 8
ExecutionTime = 7.93 s  ClockTime = 7 s

Time = 83

smoothSolver:  Solving for Ux, Initial residual = 0.00169011, Final residual = 6.87105e-06, No Iterations 8
smoothSolver:  Solving for Uy, Initial residual = 0.00150888, Final residual = 7.12286e-06, No Iterations 8
GAMG:  Solving for p, Initial residual = 0.000943494, Final residual = 9.234e-06, No Iterations 5
time step continuity errors : sum local = 3.50886e-06, global = 2.52883e-17, cumulative = 2.32992e-15
smoothSolver:  Solving for nuTilda, Initial residual = 0.0012786, Final residual = 5.83658e-06, No Iterations 8
bounding nuTilda, min: -7.56238e-05 max: 0.410253 average: 0.054078
ExecutionTime = 8.03 s  ClockTime = 8 s

Time = 84

smoothSolver:  Solving for Ux, Initial residual = 0.00167818, Final residual = 6.8155e-06, No Iterations 8
smoothSolver:  Solving for Uy, Initial residual = 0.00150575, Final residual = 7.10834e-06, No Iterations 8
GAMG:  Solving for p, Initial residual = 0.00093662, Final residual = 6.21685e-06, No Iterations 6
time step continuity errors : sum local = 2.3697e-06, global = 1.31876e-16, cumulative = 2.4618e-15
smoothSolver:  Solving for nuTilda, Initial residual = 0.00125138, Final residual = 5.70365e-06, No Iterations 8
ExecutionTime = 8.12 s  ClockTime = 8 s

Time = 85

smoothSolver:  Solving for Ux, Initial residual = 0.00166681, Final residual = 6.76382e-06, No Iterations 8
smoothSolver:  Solving for Uy, Initial residual = 0.00150175, Final residual = 7.09276e-06, No Iterations 8
GAMG:  Solving for p, Initial residual = 0.000929485, Final residual = 8.58799e-06, No Iterations 5
time step continuity errors : sum local = 3.2626e-06, global = 8.86317e-17, cumulative = 2.55043e-15
smoothSolver:  Solving for nuTilda, Initial residual = 0.00122504, Final residual = 5.57455e-06, No Iterations 8
bounding nuTilda, min: -7.47777e-05 max: 0.410258 average: 0.053411
ExecutionTime = 8.21 s  ClockTime = 8 s

forces wings output:
    sum of forces:
        pressure : (0.925422 14.3137 -2.18063e-20)
        viscous  : (0.330352 -0.00134874 2.5837e-21)
        porous   : (0 0 0)
    sum of moments:
        pressure : (-0.715684 0.0462711 5.30529)
        viscous  : (6.7437e-05 0.0165176 -0.0290149)
        porous   : (0 0 0)

Time = 86

smoothSolver:  Solving for Ux, Initial residual = 0.00165516, Final residual = 6.70839e-06, No Iterations 8
smoothSolver:  Solving for Uy, Initial residual = 0.00149898, Final residual = 7.07777e-06, No Iterations 8
GAMG:  Solving for p, Initial residual = 0.000919572, Final residual = 8.7911e-06, No Iterations 5
time step continuity errors : sum local = 3.34215e-06, global = 1.22262e-16, cumulative = 2.67269e-15
smoothSolver:  Solving for nuTilda, Initial residual = 0.00119938, Final residual = 5.44907e-06, No Iterations 8
ExecutionTime = 8.31 s  ClockTime = 8 s

Time = 87

smoothSolver:  Solving for Ux, Initial residual = 0.00164378, Final residual = 6.6536e-06, No Iterations 8
smoothSolver:  Solving for Uy, Initial residual = 0.00149658, Final residual = 7.06564e-06, No Iterations 8
GAMG:  Solving for p, Initial residual = 0.000911661, Final residual = 9.03496e-06, No Iterations 5
time step continuity errors : sum local = 3.43919e-06, global = 2.52058e-16, cumulative = 2.92475e-15
smoothSolver:  Solving for nuTilda, Initial residual = 0.00117444, Final residual = 5.32718e-06, No Iterations 8
bounding nuTilda, min: -7.42463e-05 max: 0.410263 average: 0.0527627
ExecutionTime = 8.4 s  ClockTime = 8 s

Time = 88

smoothSolver:  Solving for Ux, Initial residual = 0.00163286, Final residual = 6.60115e-06, No Iterations 8
smoothSolver:  Solving for Uy, Initial residual = 0.00149392, Final residual = 7.05511e-06, No Iterations 8
GAMG:  Solving for p, Initial residual = 0.000904559, Final residual = 8.88346e-06, No Iterations 5
time step continuity errors : sum local = 3.38652e-06, global = -1.31427e-16, cumulative = 2.79332e-15
smoothSolver:  Solving for nuTilda, Initial residual = 0.00115026, Final residual = 5.20876e-06, No Iterations 8
ExecutionTime = 8.49 s  ClockTime = 8 s

Time = 89

smoothSolver:  Solving for Ux, Initial residual = 0.00162234, Final residual = 6.55099e-06, No Iterations 8
smoothSolver:  Solving for Uy, Initial residual = 0.00149064, Final residual = 7.04284e-06, No Iterations 8
GAMG:  Solving for p, Initial residual = 0.000898219, Final residual = 8.45778e-06, No Iterations 5
time step continuity errors : sum local = 3.22795e-06, global = 2.34832e-16, cumulative = 3.02816e-15
smoothSolver:  Solving for nuTilda, Initial residual = 0.00112673, Final residual = 5.09364e-06, No Iterations 8
bounding nuTilda, min: -7.41453e-05 max: 0.410268 average: 0.0521324
ExecutionTime = 8.58 s  ClockTime = 8 s

Time = 90

smoothSolver:  Solving for Ux, Initial residual = 0.00161191, Final residual = 6.5012e-06, No Iterations 8
smoothSolver:  Solving for Uy, Initial residual = 0.00148685, Final residual = 7.02803e-06, No Iterations 8
GAMG:  Solving for p, Initial residual = 0.00089169, Final residual = 8.04115e-06, No Iterations 5
time step continuity errors : sum local = 3.07049e-06, global = 4.23114e-17, cumulative = 3.07047e-15
smoothSolver:  Solving for nuTilda, Initial residual = 0.00110388, Final residual = 4.98168e-06, No Iterations 8
ExecutionTime = 8.67 s  ClockTime = 8 s

forces wings output:
    sum of forces:
        pressure : (0.924462 14.5482 -2.09283e-20)
        viscous  : (0.322688 -0.00130849 2.65924e-21)
        porous   : (0 0 0)
    sum of moments:
        pressure : (-0.727411 0.0462231 5.36214)
        viscous  : (6.54244e-05 0.0161344 -0.028331)
        porous   : (0 0 0)

Time = 91

smoothSolver:  Solving for Ux, Initial residual = 0.00160144, Final residual = 6.45056e-06, No Iterations 8
smoothSolver:  Solving for Uy, Initial residual = 0.00148329, Final residual = 7.01175e-06, No Iterations 8
GAMG:  Solving for p, Initial residual = 0.00088539, Final residual = 7.88632e-06, No Iterations 5
time step continuity errors : sum local = 3.01125e-06, global = 8.16839e-17, cumulative = 3.15215e-15
smoothSolver:  Solving for nuTilda, Initial residual = 0.00108168, Final residual = 4.87278e-06, No Iterations 8
bounding nuTilda, min: -7.44468e-05 max: 0.410274 average: 0.0515193
ExecutionTime = 8.77 s  ClockTime = 8 s

Time = 92

smoothSolver:  Solving for Ux, Initial residual = 0.00159091, Final residual = 6.39924e-06, No Iterations 8
smoothSolver:  Solving for Uy, Initial residual = 0.00148018, Final residual = 6.9954e-06, No Iterations 8
GAMG:  Solving for p, Initial residual = 0.000878977, Final residual = 7.80135e-06, No Iterations 5
time step continuity errors : sum local = 2.97882e-06, global = -3.86661e-17, cumulative = 3.11349e-15
smoothSolver:  Solving for nuTilda, Initial residual = 0.00106009, Final residual = 4.76681e-06, No Iterations 8
ExecutionTime = 8.86 s  ClockTime = 8 s

Time = 93

smoothSolver:  Solving for Ux, Initial residual = 0.00158046, Final residual = 6.34851e-06, No Iterations 8
smoothSolver:  Solving for Uy, Initial residual = 0.00147701, Final residual = 6.97939e-06, No Iterations 8
GAMG:  Solving for p, Initial residual = 0.000873026, Final residual = 7.81983e-06, No Iterations 5
time step continuity errors : sum local = 2.98641e-06, global = -1.30112e-16, cumulative = 2.98337e-15
smoothSolver:  Solving for nuTilda, Initial residual = 0.00103906, Final residual = 4.66362e-06, No Iterations 8
bounding nuTilda, min: -7.51354e-05 max: 0.410279 average: 0.0509228
ExecutionTime = 8.96 s  ClockTime = 9 s

Time = 94

smoothSolver:  Solving for Ux, Initial residual = 0.00157025, Final residual = 6.29892e-06, No Iterations 8
smoothSolver:  Solving for Uy, Initial residual = 0.00147339, Final residual = 6.96313e-06, No Iterations 8
GAMG:  Solving for p, Initial residual = 0.000867066, Final residual = 7.73683e-06, No Iterations 5
time step continuity errors : sum local = 2.95606e-06, global = 8.59623e-17, cumulative = 3.06934e-15
smoothSolver:  Solving for nuTilda, Initial residual = 0.00101849, Final residual = 4.56285e-06, No Iterations 8
ExecutionTime = 9.05 s  ClockTime = 9 s

Time = 95

smoothSolver:  Solving for Ux, Initial residual = 0.00156022, Final residual = 6.25003e-06, No Iterations 8
smoothSolver:  Solving for Uy, Initial residual = 0.00146921, Final residual = 6.94606e-06, No Iterations 8
GAMG:  Solving for p, Initial residual = 0.000861046, Final residual = 7.68099e-06, No Iterations 5
time step continuity errors : sum local = 2.93597e-06, global = -9.34441e-18, cumulative = 3.05999e-15
smoothSolver:  Solving for nuTilda, Initial residual = 0.000998339, Final residual = 4.46428e-06, No Iterations 8
bounding nuTilda, min: -7.62914e-05 max: 0.410284 average: 0.0503423
ExecutionTime = 9.14 s  ClockTime = 9 s

forces wings output:
    sum of forces:
        pressure : (0.920367 14.7846 -1.9883e-20)
        viscous  : (0.316005 -0.00127023 2.70703e-21)
        porous   : (0 0 0)
    sum of moments:
        pressure : (-0.739232 0.0460184 5.4136)
        viscous  : (6.35114e-05 0.0158002 -0.0277322)
        porous   : (0 0 0)

Time = 96

smoothSolver:  Solving for Ux, Initial residual = 0.00155017, Final residual = 6.20113e-06, No Iterations 8
smoothSolver:  Solving for Uy, Initial residual = 0.00146464, Final residual = 6.92668e-06, No Iterations 8
GAMG:  Solving for p, Initial residual = 0.000854742, Final residual = 7.53043e-06, No Iterations 5
time step continuity errors : sum local = 2.87961e-06, global = 4.13104e-17, cumulative = 3.1013e-15
smoothSolver:  Solving for nuTilda, Initial residual = 0.000978691, Final residual = 4.36815e-06, No Iterations 8
ExecutionTime = 9.24 s  ClockTime = 9 s

Time = 97

smoothSolver:  Solving for Ux, Initial residual = 0.00154003, Final residual = 6.15198e-06, No Iterations 8
smoothSolver:  Solving for Uy, Initial residual = 0.00146008, Final residual = 6.90582e-06, No Iterations 8
GAMG:  Solving for p, Initial residual = 0.000847916, Final residual = 7.46275e-06, No Iterations 5
time step continuity errors : sum local = 2.85428e-06, global = -1.33895e-16, cumulative = 2.96741e-15
smoothSolver:  Solving for nuTilda, Initial residual = 0.000959585, Final residual = 4.27438e-06, No Iterations 8
bounding nuTilda, min: -7.79409e-05 max: 0.41029 average: 0.0497774
ExecutionTime = 9.33 s  ClockTime = 9 s

Time = 98

smoothSolver:  Solving for Ux, Initial residual = 0.0015299, Final residual = 6.1028e-06, No Iterations 8
smoothSolver:  Solving for Uy, Initial residual = 0.00145569, Final residual = 6.88437e-06, No Iterations 8
GAMG:  Solving for p, Initial residual = 0.000841058, Final residual = 7.32586e-06, No Iterations 5
time step continuity errors : sum local = 2.80251e-06, global = -1.77851e-16, cumulative = 2.78956e-15
smoothSolver:  Solving for nuTilda, Initial residual = 0.000940986, Final residual = 4.18302e-06, No Iterations 8
ExecutionTime = 9.42 s  ClockTime = 9 s

Time = 99

smoothSolver:  Solving for Ux, Initial residual = 0.00151973, Final residual = 6.05391e-06, No Iterations 8
smoothSolver:  Solving for Uy, Initial residual = 0.00145108, Final residual = 6.86194e-06, No Iterations 8
GAMG:  Solving for p, Initial residual = 0.000833592, Final residual = 7.27078e-06, No Iterations 5
time step continuity errors : sum local = 2.78177e-06, global = -1.0895e-16, cumulative = 2.68061e-15
smoothSolver:  Solving for nuTilda, Initial residual = 0.00092273, Final residual = 4.09421e-06, No Iterations 8
bounding nuTilda, min: -8.00561e-05 max: 0.410295 average: 0.0492275
ExecutionTime = 9.52 s  ClockTime = 9 s

Time = 100

smoothSolver:  Solving for Ux, Initial residual = 0.00150961, Final residual = 6.0052e-06, No Iterations 8
smoothSolver:  Solving for Uy, Initial residual = 0.00144616, Final residual = 6.83806e-06, No Iterations 8
GAMG:  Solving for p, Initial residual = 0.000826587, Final residual = 7.12105e-06, No Iterations 5
time step continuity errors : sum local = 2.72528e-06, global = 4.82164e-17, cumulative = 2.72882e-15
smoothSolver:  Solving for nuTilda, Initial residual = 0.000904869, Final residual = 4.00773e-06, No Iterations 8
ExecutionTime = 9.61 s  ClockTime = 9 s

forces wings output:
    sum of forces:
        pressure : (0.912955 15.0238 -1.90538e-20)
        viscous  : (0.309941 -0.00122354 2.73948e-21)
        porous   : (0 0 0)
    sum of moments:
        pressure : (-0.75119 0.0456477 5.45956)
        viscous  : (6.1177e-05 0.015497 -0.0271858)
        porous   : (0 0 0)

Time = 101

smoothSolver:  Solving for Ux, Initial residual = 0.0014995, Final residual = 5.95666e-06, No Iterations 8
smoothSolver:  Solving for Uy, Initial residual = 0.00144083, Final residual = 6.81241e-06, No Iterations 8
GAMG:  Solving for p, Initial residual = 0.000818685, Final residual = 7.05226e-06, No Iterations 5
time step continuity errors : sum local = 2.69958e-06, global = -1.84257e-17, cumulative = 2.7104e-15
smoothSolver:  Solving for nuTilda, Initial residual = 0.000887465, Final residual = 3.92323e-06, No Iterations 8
bounding nuTilda, min: -8.26229e-05 max: 0.4103 average: 0.048692
ExecutionTime = 9.71 s  ClockTime = 9 s

Time = 102

smoothSolver:  Solving for Ux, Initial residual = 0.00148936, Final residual = 5.90801e-06, No Iterations 8
smoothSolver:  Solving for Uy, Initial residual = 0.00143519, Final residual = 6.78511e-06, No Iterations 8
GAMG:  Solving for p, Initial residual = 0.000811329, Final residual = 6.90692e-06, No Iterations 5
time step continuity errors : sum local = 2.64483e-06, global = 1.67221e-18, cumulative = 2.71207e-15
smoothSolver:  Solving for nuTilda, Initial residual = 0.000870408, Final residual = 3.84061e-06, No Iterations 8
ExecutionTime = 9.8 s  ClockTime = 9 s

Time = 103

smoothSolver:  Solving for Ux, Initial residual = 0.00147918, Final residual = 5.85915e-06, No Iterations 8
smoothSolver:  Solving for Uy, Initial residual = 0.00142925, Final residual = 6.75664e-06, No Iterations 8
GAMG:  Solving for p, Initial residual = 0.000802818, Final residual = 6.84865e-06, No Iterations 5
time step continuity errors : sum local = 2.62302e-06, global = 6.96565e-17, cumulative = 2.78173e-15
smoothSolver:  Solving for nuTilda, Initial residual = 0.000853834, Final residual = 3.76004e-06, No Iterations 8
bounding nuTilda, min: -8.56324e-05 max: 0.410305 average: 0.0481706
ExecutionTime = 9.89 s  ClockTime = 9 s

Time = 104

smoothSolver:  Solving for Ux, Initial residual = 0.00146901, Final residual = 5.81007e-06, No Iterations 8
smoothSolver:  Solving for Uy, Initial residual = 0.00142314, Final residual = 6.72638e-06, No Iterations 8
GAMG:  Solving for p, Initial residual = 0.000794694, Final residual = 6.70924e-06, No Iterations 5
time step continuity errors : sum local = 2.57032e-06, global = -1.62692e-16, cumulative = 2.61903e-15
smoothSolver:  Solving for nuTilda, Initial residual = 0.000837648, Final residual = 3.68146e-06, No Iterations 8
ExecutionTime = 9.98 s  ClockTime = 10 s

Time = 105

smoothSolver:  Solving for Ux, Initial residual = 0.00145886, Final residual = 5.76085e-06, No Iterations 8
smoothSolver:  Solving for Uy, Initial residual = 0.00141682, Final residual = 6.69464e-06, No Iterations 8
GAMG:  Solving for p, Initial residual = 0.000785525, Final residual = 6.63598e-06, No Iterations 5
time step continuity errors : sum local = 2.54263e-06, global = -1.55287e-18, cumulative = 2.61748e-15
smoothSolver:  Solving for nuTilda, Initial residual = 0.000821828, Final residual = 3.60463e-06, No Iterations 8
bounding nuTilda, min: -8.90656e-05 max: 0.41031 average: 0.0476627
ExecutionTime = 10.08 s  ClockTime = 10 s

forces wings output:
    sum of forces:
        pressure : (0.902158 15.2604 -1.84422e-20)
        viscous  : (0.304299 -0.00116498 2.76304e-21)
        porous   : (0 0 0)
    sum of moments:
        pressure : (-0.763021 0.0451079 5.49856)
        viscous  : (5.8249e-05 0.015215 -0.0266747)
        porous   : (0 0 0)

Time = 106

smoothSolver:  Solving for Ux, Initial residual = 0.00144877, Final residual = 5.71174e-06, No Iterations 8
smoothSolver:  Solving for Uy, Initial residual = 0.00141031, Final residual = 6.66152e-06, No Iterations 8
GAMG:  Solving for p, Initial residual = 0.000776965, Final residual = 6.47685e-06, No Iterations 5
time step continuity errors : sum local = 2.48233e-06, global = 2.17773e-17, cumulative = 2.63926e-15
smoothSolver:  Solving for nuTilda, Initial residual = 0.000806446, Final residual = 3.52961e-06, No Iterations 8
ExecutionTime = 10.18 s  ClockTime = 10 s

Time = 107

smoothSolver:  Solving for Ux, Initial residual = 0.0014387, Final residual = 5.66257e-06, No Iterations 8
smoothSolver:  Solving for Uy, Initial residual = 0.00140364, Final residual = 6.62687e-06, No Iterations 8
GAMG:  Solving for p, Initial residual = 0.000767538, Final residual = 6.38326e-06, No Iterations 5
time step continuity errors : sum local = 2.44691e-06, global = 2.06471e-16, cumulative = 2.84573e-15
smoothSolver:  Solving for nuTilda, Initial residual = 0.000791427, Final residual = 3.45646e-06, No Iterations 8
bounding nuTilda, min: -9.28974e-05 max: 0.410314 average: 0.0471679
ExecutionTime = 10.27 s  ClockTime = 10 s

Time = 108

smoothSolver:  Solving for Ux, Initial residual = 0.00142874, Final residual = 5.6133e-06, No Iterations 8
smoothSolver:  Solving for Uy, Initial residual = 0.00139657, Final residual = 6.59098e-06, No Iterations 8
GAMG:  Solving for p, Initial residual = 0.000758637, Final residual = 6.21971e-06, No Iterations 5
time step continuity errors : sum local = 2.38491e-06, global = 1.12703e-16, cumulative = 2.95843e-15
smoothSolver:  Solving for nuTilda, Initial residual = 0.000776769, Final residual = 3.38513e-06, No Iterations 8
ExecutionTime = 10.36 s  ClockTime = 10 s

Time = 109

smoothSolver:  Solving for Ux, Initial residual = 0.0014188, Final residual = 5.56384e-06, No Iterations 8
smoothSolver:  Solving for Uy, Initial residual = 0.00138919, Final residual = 6.5535e-06, No Iterations 8
GAMG:  Solving for p, Initial residual = 0.000748747, Final residual = 6.12273e-06, No Iterations 5
time step continuity errors : sum local = 2.34817e-06, global = 4.9317e-17, cumulative = 3.00775e-15
smoothSolver:  Solving for nuTilda, Initial residual = 0.000762439, Final residual = 3.31553e-06, No Iterations 8
bounding nuTilda, min: -9.70993e-05 max: 0.410319 average: 0.0466858
ExecutionTime = 10.45 s  ClockTime = 10 s

Time = 110

smoothSolver:  Solving for Ux, Initial residual = 0.00140894, Final residual = 5.51414e-06, No Iterations 8
smoothSolver:  Solving for Uy, Initial residual = 0.00138148, Final residual = 6.51442e-06, No Iterations 8
GAMG:  Solving for p, Initial residual = 0.000739657, Final residual = 5.96038e-06, No Iterations 5
time step continuity errors : sum local = 2.28654e-06, global = -6.83288e-17, cumulative = 2.93942e-15
smoothSolver:  Solving for nuTilda, Initial residual = 0.000748433, Final residual = 3.2476e-06, No Iterations 8
ExecutionTime = 10.54 s  ClockTime = 10 s

forces wings output:
    sum of forces:
        pressure : (0.888024 15.4885 -1.80206e-20)
        viscous  : (0.299099 -0.00110066 2.7714e-21)
        porous   : (0 0 0)
    sum of moments:
        pressure : (-0.774424 0.0444012 5.52921)
        viscous  : (5.50328e-05 0.014955 -0.0262011)
        porous   : (0 0 0)

Time = 111

smoothSolver:  Solving for Ux, Initial residual = 0.0013991, Final residual = 5.46415e-06, No Iterations 8
smoothSolver:  Solving for Uy, Initial residual = 0.00137353, Final residual = 6.47383e-06, No Iterations 8
GAMG:  Solving for p, Initial residual = 0.000729352, Final residual = 5.85309e-06, No Iterations 5
time step continuity errors : sum local = 2.24578e-06, global = -2.63129e-16, cumulative = 2.67629e-15
smoothSolver:  Solving for nuTilda, Initial residual = 0.000734737, Final residual = 3.18126e-06, No Iterations 8
bounding nuTilda, min: -0.000101638 max: 0.410323 average: 0.046216
ExecutionTime = 10.64 s  ClockTime = 10 s

Time = 112

smoothSolver:  Solving for Ux, Initial residual = 0.00138931, Final residual = 5.41388e-06, No Iterations 8
smoothSolver:  Solving for Uy, Initial residual = 0.00136536, Final residual = 6.43178e-06, No Iterations 8
GAMG:  Solving for p, Initial residual = 0.000720094, Final residual = 5.68334e-06, No Iterations 5
time step continuity errors : sum local = 2.18124e-06, global = -5.494e-17, cumulative = 2.62135e-15
smoothSolver:  Solving for nuTilda, Initial residual = 0.000721338, Final residual = 3.11643e-06, No Iterations 8
ExecutionTime = 10.74 s  ClockTime = 10 s

Time = 113

smoothSolver:  Solving for Ux, Initial residual = 0.00137954, Final residual = 5.36325e-06, No Iterations 8
smoothSolver:  Solving for Uy, Initial residual = 0.0013569, Final residual = 6.38863e-06, No Iterations 8
GAMG:  Solving for p, Initial residual = 0.000709449, Final residual = 5.56351e-06, No Iterations 5
time step continuity errors : sum local = 2.13563e-06, global = 4.76231e-17, cumulative = 2.66897e-15
smoothSolver:  Solving for nuTilda, Initial residual = 0.000708238, Final residual = 3.05308e-06, No Iterations 8
bounding nuTilda, min: -0.000106479 max: 0.410327 average: 0.0457582
ExecutionTime = 10.83 s  ClockTime = 10 s

Time = 114

smoothSolver:  Solving for Ux, Initial residual = 0.00136975, Final residual = 5.31222e-06, No Iterations 8
smoothSolver:  Solving for Uy, Initial residual = 0.00134818, Final residual = 6.34432e-06, No Iterations 8
GAMG:  Solving for p, Initial residual = 0.000700396, Final residual = 5.39127e-06, No Iterations 5
time step continuity errors : sum local = 2.07006e-06, global = -1.37331e-16, cumulative = 2.53164e-15
smoothSolver:  Solving for nuTilda, Initial residual = 0.000695438, Final residual = 2.99115e-06, No Iterations 8
ExecutionTime = 10.92 s  ClockTime = 10 s

Time = 115

smoothSolver:  Solving for Ux, Initial residual = 0.0013599, Final residual = 5.26093e-06, No Iterations 8
smoothSolver:  Solving for Uy, Initial residual = 0.00133923, Final residual = 6.29833e-06, No Iterations 8
GAMG:  Solving for p, Initial residual = 0.000689934, Final residual = 5.2646e-06, No Iterations 5
time step continuity errors : sum local = 2.02179e-06, global = -1.98021e-17, cumulative = 2.51184e-15
smoothSolver:  Solving for nuTilda, Initial residual = 0.000682918, Final residual = 2.9306e-06, No Iterations 8
bounding nuTilda, min: -0.000111583 max: 0.410331 average: 0.0453119
ExecutionTime = 11.01 s  ClockTime = 11 s

forces wings output:
    sum of forces:
        pressure : (0.870731 15.7035 -1.77455e-20)
        viscous  : (0.294423 -0.00103155 2.76301e-21)
        porous   : (0 0 0)
    sum of moments:
        pressure : (-0.785173 0.0435366 5.55068)
        viscous  : (5.15774e-05 0.0147212 -0.0257721)
        porous   : (0 0 0)

Time = 116

smoothSolver:  Solving for Ux, Initial residual = 0.00135008, Final residual = 5.20925e-06, No Iterations 8
smoothSolver:  Solving for Uy, Initial residual = 0.00133008, Final residual = 6.2511e-06, No Iterations 8
GAMG:  Solving for p, Initial residual = 0.000681653, Final residual = 5.0911e-06, No Iterations 5
time step continuity errors : sum local = 1.95566e-06, global = -6.47065e-17, cumulative = 2.44713e-15
smoothSolver:  Solving for nuTilda, Initial residual = 0.000670679, Final residual = 2.87138e-06, No Iterations 8
ExecutionTime = 11.11 s  ClockTime = 11 s

Time = 117

smoothSolver:  Solving for Ux, Initial residual = 0.00134028, Final residual = 5.15711e-06, No Iterations 8
smoothSolver:  Solving for Uy, Initial residual = 0.00132072, Final residual = 6.20278e-06, No Iterations 8
GAMG:  Solving for p, Initial residual = 0.000672001, Final residual = 4.95623e-06, No Iterations 5
time step continuity errors : sum local = 1.9042e-06, global = -4.90021e-17, cumulative = 2.39813e-15
smoothSolver:  Solving for nuTilda, Initial residual = 0.000658712, Final residual = 2.8135e-06, No Iterations 8
[...]
smoothSolver:  Solving for nuTilda, Initial residual = 1.11564e-08, Final residual = 1.60922e-10, No Iterations 2
bounding nuTilda, min: -0.000192972 max: 0.410357 average: 0.0271041
ExecutionTime = 366.31 s  ClockTime = 367 s

Time = 4974

smoothSolver:  Solving for Ux, Initial residual = 1.50971e-07, Final residual = 2.2746e-09, No Iterations 4
smoothSolver:  Solving for Uy, Initial residual = 6.49084e-07, Final residual = 7.51506e-09, No Iterations 4
GAMG:  Solving for p, Initial residual = 9.36361e-06, Final residual = 6.7026e-07, No Iterations 1
time step continuity errors : sum local = 2.51012e-07, global = -1.81604e-16, cumulative = 4.65114e-14
smoothSolver:  Solving for nuTilda, Initial residual = 1.07845e-08, Final residual = 1.59571e-10, No Iterations 2
bounding nuTilda, min: -0.000196986 max: 0.410357 average: 0.0271041
ExecutionTime = 366.38 s  ClockTime = 367 s

Time = 4975

smoothSolver:  Solving for Ux, Initial residual = 1.34495e-07, Final residual = 2.24585e-09, No Iterations 4
smoothSolver:  Solving for Uy, Initial residual = 5.83839e-07, Final residual = 7.75641e-09, No Iterations 4
GAMG:  Solving for p, Initial residual = 7.89951e-06, Final residual = 6.09577e-07, No Iterations 1
time step continuity errors : sum local = 2.28232e-07, global = 2.85425e-16, cumulative = 4.67968e-14
smoothSolver:  Solving for nuTilda, Initial residual = 1.04897e-08, Final residual = 1.5586e-10, No Iterations 2
bounding nuTilda, min: -0.000169332 max: 0.410357 average: 0.0271041
ExecutionTime = 366.44 s  ClockTime = 367 s

forces wings output:
    sum of forces:
        pressure : (0.144739 17.758 -5.85367e-21)
        viscous  : (0.256292 0.00741322 1.78217e-22)
        porous   : (0 0 0)
    sum of moments:
        pressure : (-0.887901 0.00723697 4.7096)
        viscous  : (-0.000370661 0.0128146 -0.0208501)
        porous   : (0 0 0)

Time = 4976

smoothSolver:  Solving for Ux, Initial residual = 1.12069e-07, Final residual = 2.12878e-09, No Iterations 4
smoothSolver:  Solving for Uy, Initial residual = 4.83029e-07, Final residual = 7.13406e-09, No Iterations 4
GAMG:  Solving for p, Initial residual = 5.77612e-06, Final residual = 4.85171e-07, No Iterations 1
time step continuity errors : sum local = 1.8164e-07, global = -1.46982e-16, cumulative = 4.66498e-14
smoothSolver:  Solving for nuTilda, Initial residual = 1.02938e-08, Final residual = 1.59042e-10, No Iterations 2
bounding nuTilda, min: -0.000174067 max: 0.410357 average: 0.0271041
ExecutionTime = 366.52 s  ClockTime = 367 s

Time = 4977

smoothSolver:  Solving for Ux, Initial residual = 1.43598e-07, Final residual = 2.2779e-09, No Iterations 4
smoothSolver:  Solving for Uy, Initial residual = 4.8257e-07, Final residual = 7.21191e-09, No Iterations 4
GAMG:  Solving for p, Initial residual = 8.07179e-06, Final residual = 5.99808e-07, No Iterations 1
time step continuity errors : sum local = 2.24559e-07, global = 1.62085e-16, cumulative = 4.68119e-14
smoothSolver:  Solving for nuTilda, Initial residual = 1.11121e-08, Final residual = 1.66624e-10, No Iterations 2
bounding nuTilda, min: -0.000192969 max: 0.410357 average: 0.0271041
ExecutionTime = 366.59 s  ClockTime = 367 s

Time = 4978

smoothSolver:  Solving for Ux, Initial residual = 1.24953e-07, Final residual = 9.90089e-09, No Iterations 2
smoothSolver:  Solving for Uy, Initial residual = 4.20089e-07, Final residual = 6.26831e-09, No Iterations 4
GAMG:  Solving for p, Initial residual = 7.19967e-06, Final residual = 5.68853e-07, No Iterations 1
time step continuity errors : sum local = 2.12956e-07, global = -1.27263e-16, cumulative = 4.66846e-14
smoothSolver:  Solving for nuTilda, Initial residual = 1.04628e-08, Final residual = 1.67856e-10, No Iterations 2
bounding nuTilda, min: -0.000165004 max: 0.410357 average: 0.0271041
ExecutionTime = 366.66 s  ClockTime = 367 s

Time = 4979

smoothSolver:  Solving for Ux, Initial residual = 1.13265e-07, Final residual = 9.7957e-09, No Iterations 2
smoothSolver:  Solving for Uy, Initial residual = 4.34438e-07, Final residual = 6.2518e-09, No Iterations 4
GAMG:  Solving for p, Initial residual = 5.9505e-06, Final residual = 4.59998e-07, No Iterations 1
time step continuity errors : sum local = 1.72243e-07, global = -1.83972e-17, cumulative = 4.66662e-14
smoothSolver:  Solving for nuTilda, Initial residual = 1.051e-08, Final residual = 1.61907e-10, No Iterations 2
bounding nuTilda, min: -0.000169333 max: 0.410357 average: 0.0271041
ExecutionTime = 366.72 s  ClockTime = 367 s

Time = 4980

smoothSolver:  Solving for Ux, Initial residual = 1.15756e-07, Final residual = 8.97818e-09, No Iterations 2
smoothSolver:  Solving for Uy, Initial residual = 5.40778e-07, Final residual = 5.77443e-09, No Iterations 4
GAMG:  Solving for p, Initial residual = 9.62924e-06, Final residual = 7.04629e-07, No Iterations 1
time step continuity errors : sum local = 2.63826e-07, global = 1.14525e-17, cumulative = 4.66777e-14
smoothSolver:  Solving for nuTilda, Initial residual = 1.07551e-08, Final residual = 1.61352e-10, No Iterations 2
bounding nuTilda, min: -0.000196987 max: 0.410357 average: 0.0271041
ExecutionTime = 366.79 s  ClockTime = 367 s

forces wings output:
    sum of forces:
        pressure : (0.144731 17.7581 -5.86425e-21)
        viscous  : (0.25629 0.00741229 1.78392e-22)
        porous   : (0 0 0)
    sum of moments:
        pressure : (-0.887903 0.00723654 4.70959)
        viscous  : (-0.000370615 0.0128145 -0.0208499)
        porous   : (0 0 0)

Time = 4981

smoothSolver:  Solving for Ux, Initial residual = 1.48836e-07, Final residual = 9.52308e-09, No Iterations 2
smoothSolver:  Solving for Uy, Initial residual = 5.7376e-07, Final residual = 6.111e-09, No Iterations 4
GAMG:  Solving for p, Initial residual = 9.15832e-06, Final residual = 6.83787e-07, No Iterations 1
time step continuity errors : sum local = 2.55986e-07, global = 2.74614e-17, cumulative = 4.67051e-14
smoothSolver:  Solving for nuTilda, Initial residual = 1.11209e-08, Final residual = 1.58049e-10, No Iterations 2
bounding nuTilda, min: -0.000192977 max: 0.410357 average: 0.0271041
ExecutionTime = 366.86 s  ClockTime = 367 s

Time = 4982

smoothSolver:  Solving for Ux, Initial residual = 1.32248e-07, Final residual = 8.48083e-09, No Iterations 2
smoothSolver:  Solving for Uy, Initial residual = 5.45097e-07, Final residual = 5.71782e-09, No Iterations 4
GAMG:  Solving for p, Initial residual = 5.46976e-06, Final residual = 4.34817e-07, No Iterations 1
time step continuity errors : sum local = 1.62777e-07, global = -4.45463e-18, cumulative = 4.67007e-14
smoothSolver:  Solving for nuTilda, Initial residual = 1.02843e-08, Final residual = 1.50114e-10, No Iterations 2
bounding nuTilda, min: -0.000174065 max: 0.410357 average: 0.0271041
ExecutionTime = 366.92 s  ClockTime = 367 s

Time = 4983

smoothSolver:  Solving for Ux, Initial residual = 1.14085e-07, Final residual = 8.94331e-09, No Iterations 2
smoothSolver:  Solving for Uy, Initial residual = 4.49138e-07, Final residual = 5.74922e-09, No Iterations 4
GAMG:  Solving for p, Initial residual = 6.75774e-06, Final residual = 4.97842e-07, No Iterations 1
time step continuity errors : sum local = 1.86384e-07, global = 2.52034e-16, cumulative = 4.69527e-14
smoothSolver:  Solving for nuTilda, Initial residual = 1.04023e-08, Final residual = 1.43142e-10, No Iterations 2
bounding nuTilda, min: -0.000169331 max: 0.410357 average: 0.0271041
ExecutionTime = 366.99 s  ClockTime = 367 s

Time = 4984

smoothSolver:  Solving for Ux, Initial residual = 9.36448e-08, Final residual = 9.0326e-09, No Iterations 2
smoothSolver:  Solving for Uy, Initial residual = 3.40953e-07, Final residual = 6.28801e-09, No Iterations 4
GAMG:  Solving for p, Initial residual = 7.45e-06, Final residual = 5.87073e-07, No Iterations 1
time step continuity errors : sum local = 2.19772e-07, global = -1.43542e-16, cumulative = 4.68092e-14
smoothSolver:  Solving for nuTilda, Initial residual = 1.03653e-08, Final residual = 1.44351e-10, No Iterations 2
bounding nuTilda, min: -0.000165002 max: 0.410357 average: 0.0271041
ExecutionTime = 367.06 s  ClockTime = 367 s

Time = 4985

smoothSolver:  Solving for Ux, Initial residual = 1.3195e-07, Final residual = 9.45905e-09, No Iterations 2
smoothSolver:  Solving for Uy, Initial residual = 4.56624e-07, Final residual = 6.51887e-09, No Iterations 4
GAMG:  Solving for p, Initial residual = 7.21707e-06, Final residual = 5.25687e-07, No Iterations 1
time step continuity errors : sum local = 1.96826e-07, global = -1.44558e-16, cumulative = 4.66646e-14
smoothSolver:  Solving for nuTilda, Initial residual = 1.10925e-08, Final residual = 1.45719e-10, No Iterations 2
bounding nuTilda, min: -0.000192972 max: 0.410357 average: 0.0271041
ExecutionTime = 367.13 s  ClockTime = 367 s

forces wings output:
    sum of forces:
        pressure : (0.144733 17.7581 -5.86228e-21)
        viscous  : (0.256295 0.00741316 1.77828e-22)
        porous   : (0 0 0)
    sum of moments:
        pressure : (-0.887905 0.00723665 4.70961)
        viscous  : (-0.000370658 0.0128148 -0.02085)
        porous   : (0 0 0)

Time = 4986

smoothSolver:  Solving for Ux, Initial residual = 1.43501e-07, Final residual = 8.99904e-09, No Iterations 2
smoothSolver:  Solving for Uy, Initial residual = 6.25491e-07, Final residual = 5.77543e-09, No Iterations 4
GAMG:  Solving for p, Initial residual = 9.31327e-06, Final residual = 6.43587e-07, No Iterations 1
time step continuity errors : sum local = 2.40955e-07, global = 2.56443e-16, cumulative = 4.69211e-14
smoothSolver:  Solving for nuTilda, Initial residual = 1.07218e-08, Final residual = 1.45216e-10, No Iterations 2
bounding nuTilda, min: -0.000196987 max: 0.410357 average: 0.0271041
ExecutionTime = 367.2 s  ClockTime = 367 s

Time = 4987

smoothSolver:  Solving for Ux, Initial residual = 1.28565e-07, Final residual = 9.37319e-09, No Iterations 2
smoothSolver:  Solving for Uy, Initial residual = 5.55055e-07, Final residual = 5.83792e-09, No Iterations 4
GAMG:  Solving for p, Initial residual = 7.85287e-06, Final residual = 5.83125e-07, No Iterations 1
time step continuity errors : sum local = 2.18291e-07, global = 2.34927e-16, cumulative = 4.7156e-14
smoothSolver:  Solving for nuTilda, Initial residual = 1.04274e-08, Final residual = 1.41895e-10, No Iterations 2
bounding nuTilda, min: -0.000169333 max: 0.410357 average: 0.0271041
ExecutionTime = 367.26 s  ClockTime = 368 s

Time = 4988

smoothSolver:  Solving for Ux, Initial residual = 1.05859e-07, Final residual = 8.99705e-09, No Iterations 2
smoothSolver:  Solving for Uy, Initial residual = 4.63749e-07, Final residual = 5.81536e-09, No Iterations 4
GAMG:  Solving for p, Initial residual = 5.72327e-06, Final residual = 4.60252e-07, No Iterations 1
time step continuity errors : sum local = 1.72311e-07, global = -1.97842e-16, cumulative = 4.69581e-14
smoothSolver:  Solving for nuTilda, Initial residual = 1.02225e-08, Final residual = 1.41726e-10, No Iterations 2
bounding nuTilda, min: -0.000174066 max: 0.410357 average: 0.0271041
ExecutionTime = 367.33 s  ClockTime = 368 s

Time = 4989

smoothSolver:  Solving for Ux, Initial residual = 1.35299e-07, Final residual = 9.31056e-09, No Iterations 2
smoothSolver:  Solving for Uy, Initial residual = 4.63585e-07, Final residual = 5.82999e-09, No Iterations 4
GAMG:  Solving for p, Initial residual = 8.01999e-06, Final residual = 5.77538e-07, No Iterations 1
time step continuity errors : sum local = 2.1625e-07, global = 3.81072e-17, cumulative = 4.69963e-14
smoothSolver:  Solving for nuTilda, Initial residual = 1.10252e-08, Final residual = 1.45054e-10, No Iterations 2
bounding nuTilda, min: -0.000192971 max: 0.410357 average: 0.0271041
ExecutionTime = 367.39 s  ClockTime = 368 s

Time = 4990

smoothSolver:  Solving for Ux, Initial residual = 1.15858e-07, Final residual = 7.6e-09, No Iterations 2
smoothSolver:  Solving for Uy, Initial residual = 4.02373e-07, Final residual = 4.94968e-09, No Iterations 4
GAMG:  Solving for p, Initial residual = 7.16225e-06, Final residual = 5.50985e-07, No Iterations 1
time step continuity errors : sum local = 2.06318e-07, global = -2.00278e-17, cumulative = 4.69762e-14
smoothSolver:  Solving for nuTilda, Initial residual = 1.03595e-08, Final residual = 1.42442e-10, No Iterations 2
bounding nuTilda, min: -0.000165003 max: 0.410357 average: 0.0271041
ExecutionTime = 367.46 s  ClockTime = 368 s

forces wings output:
    sum of forces:
        pressure : (0.144749 17.7581 -5.85415e-21)
        viscous  : (0.256293 0.00741239 1.78013e-22)
        porous   : (0 0 0)
    sum of moments:
        pressure : (-0.887903 0.00723747 4.70962)
        viscous  : (-0.00037062 0.0128147 -0.0208498)
        porous   : (0 0 0)

Time = 4991

smoothSolver:  Solving for Ux, Initial residual = 1.06569e-07, Final residual = 8.11283e-09, No Iterations 2
smoothSolver:  Solving for Uy, Initial residual = 4.26071e-07, Final residual = 5.59019e-09, No Iterations 4
GAMG:  Solving for p, Initial residual = 5.92018e-06, Final residual = 4.43385e-07, No Iterations 1
time step continuity errors : sum local = 1.65995e-07, global = -5.2902e-17, cumulative = 4.69233e-14
smoothSolver:  Solving for nuTilda, Initial residual = 1.04031e-08, Final residual = 1.37759e-10, No Iterations 2
bounding nuTilda, min: -0.000169334 max: 0.410357 average: 0.0271041
ExecutionTime = 367.53 s  ClockTime = 368 s

Time = 4992

smoothSolver:  Solving for Ux, Initial residual = 1.09129e-07, Final residual = 7.23121e-09, No Iterations 2
smoothSolver:  Solving for Uy, Initial residual = 5.25515e-07, Final residual = 4.6582e-09, No Iterations 4
GAMG:  Solving for p, Initial residual = 9.59365e-06, Final residual = 6.87845e-07, No Iterations 1
time step continuity errors : sum local = 2.57503e-07, global = -1.69303e-16, cumulative = 4.6754e-14
smoothSolver:  Solving for nuTilda, Initial residual = 1.06438e-08, Final residual = 1.36545e-10, No Iterations 2
bounding nuTilda, min: -0.000196986 max: 0.410357 average: 0.0271041
ExecutionTime = 367.6 s  ClockTime = 368 s

Time = 4993

smoothSolver:  Solving for Ux, Initial residual = 1.43624e-07, Final residual = 8.22686e-09, No Iterations 2
smoothSolver:  Solving for Uy, Initial residual = 5.56032e-07, Final residual = 4.91467e-09, No Iterations 4
GAMG:  Solving for p, Initial residual = 9.13319e-06, Final residual = 6.68137e-07, No Iterations 1
time step continuity errors : sum local = 2.50163e-07, global = 1.77917e-16, cumulative = 4.69319e-14
smoothSolver:  Solving for nuTilda, Initial residual = 1.10153e-08, Final residual = 1.33773e-10, No Iterations 2
bounding nuTilda, min: -0.000192977 max: 0.410357 average: 0.0271041
ExecutionTime = 367.66 s  ClockTime = 368 s

Time = 4994

smoothSolver:  Solving for Ux, Initial residual = 1.28653e-07, Final residual = 7.64409e-09, No Iterations 2
smoothSolver:  Solving for Uy, Initial residual = 5.31485e-07, Final residual = 4.9234e-09, No Iterations 4
GAMG:  Solving for p, Initial residual = 5.44255e-06, Final residual = 4.18519e-07, No Iterations 1
time step continuity errors : sum local = 1.56733e-07, global = 4.08794e-17, cumulative = 4.69728e-14
smoothSolver:  Solving for nuTilda, Initial residual = 1.0183e-08, Final residual = 1.2698e-10, No Iterations 2
bounding nuTilda, min: -0.000174065 max: 0.410357 average: 0.0271041
ExecutionTime = 367.73 s  ClockTime = 368 s

Time = 4995

smoothSolver:  Solving for Ux, Initial residual = 1.10606e-07, Final residual = 8.20243e-09, No Iterations 2
smoothSolver:  Solving for Uy, Initial residual = 4.37656e-07, Final residual = 5.18643e-09, No Iterations 4
GAMG:  Solving for p, Initial residual = 6.72815e-06, Final residual = 4.80256e-07, No Iterations 1
time step continuity errors : sum local = 1.79808e-07, global = -1.59012e-16, cumulative = 4.68138e-14
smoothSolver:  Solving for nuTilda, Initial residual = 1.0298e-08, Final residual = 1.18669e-10, No Iterations 2
bounding nuTilda, min: -0.000169331 max: 0.410357 average: 0.0271041
ExecutionTime = 367.79 s  ClockTime = 368 s

forces wings output:
    sum of forces:
        pressure : (0.14474 17.7581 -5.85347e-21)
        viscous  : (0.256292 0.00741257 1.78217e-22)
        porous   : (0 0 0)
    sum of moments:
        pressure : (-0.887903 0.00723701 4.70961)
        viscous  : (-0.000370628 0.0128146 -0.0208499)
        porous   : (0 0 0)

Time = 4996

smoothSolver:  Solving for Ux, Initial residual = 8.7477e-08, Final residual = 7.58001e-09, No Iterations 2
smoothSolver:  Solving for Uy, Initial residual = 3.12776e-07, Final residual = 4.6952e-09, No Iterations 4
GAMG:  Solving for p, Initial residual = 7.42441e-06, Final residual = 5.71867e-07, No Iterations 1
time step continuity errors : sum local = 2.14111e-07, global = -2.56124e-16, cumulative = 4.65577e-14
smoothSolver:  Solving for nuTilda, Initial residual = 1.02456e-08, Final residual = 1.16116e-10, No Iterations 2
bounding nuTilda, min: -0.000165002 max: 0.410357 average: 0.0271041
ExecutionTime = 367.86 s  ClockTime = 368 s

Time = 4997

smoothSolver:  Solving for Ux, Initial residual = 1.2748e-07, Final residual = 8.52935e-09, No Iterations 2
smoothSolver:  Solving for Uy, Initial residual = 4.31641e-07, Final residual = 5.22105e-09, No Iterations 4
GAMG:  Solving for p, Initial residual = 7.1858e-06, Final residual = 5.07775e-07, No Iterations 1
time step continuity errors : sum local = 1.90141e-07, global = -5.89543e-17, cumulative = 4.64987e-14
smoothSolver:  Solving for nuTilda, Initial residual = 1.09635e-08, Final residual = 1.18263e-10, No Iterations 2
bounding nuTilda, min: -0.000192971 max: 0.410357 average: 0.0271041
ExecutionTime = 367.93 s  ClockTime = 368 s

Time = 4998

smoothSolver:  Solving for Ux, Initial residual = 1.38258e-07, Final residual = 7.88038e-09, No Iterations 2
smoothSolver:  Solving for Uy, Initial residual = 6.0822e-07, Final residual = 4.87979e-09, No Iterations 4
GAMG:  Solving for p, Initial residual = 9.28924e-06, Final residual = 6.29292e-07, No Iterations 1
time step continuity errors : sum local = 2.35617e-07, global = -8.72132e-17, cumulative = 4.64115e-14
smoothSolver:  Solving for nuTilda, Initial residual = 1.05934e-08, Final residual = 1.19627e-10, No Iterations 2
bounding nuTilda, min: -0.000196987 max: 0.410357 average: 0.0271041
ExecutionTime = 368 s  ClockTime = 368 s

Time = 4999

smoothSolver:  Solving for Ux, Initial residual = 1.22712e-07, Final residual = 8.0868e-09, No Iterations 2
smoothSolver:  Solving for Uy, Initial residual = 5.45846e-07, Final residual = 5.3514e-09, No Iterations 4
GAMG:  Solving for p, Initial residual = 7.83429e-06, Final residual = 5.72712e-07, No Iterations 1
time step continuity errors : sum local = 2.14399e-07, global = 1.6272e-16, cumulative = 4.65742e-14
smoothSolver:  Solving for nuTilda, Initial residual = 1.02993e-08, Final residual = 1.17141e-10, No Iterations 2
bounding nuTilda, min: -0.000169333 max: 0.410357 average: 0.0271041
ExecutionTime = 368.07 s  ClockTime = 368 s

Time = 5000

smoothSolver:  Solving for Ux, Initial residual = 1.0082e-07, Final residual = 7.81724e-09, No Iterations 2
smoothSolver:  Solving for Uy, Initial residual = 4.49453e-07, Final residual = 5.0308e-09, No Iterations 4
GAMG:  Solving for p, Initial residual = 5.70211e-06, Final residual = 4.47252e-07, No Iterations 1
time step continuity errors : sum local = 1.67446e-07, global = -9.1927e-17, cumulative = 4.64823e-14
smoothSolver:  Solving for nuTilda, Initial residual = 1.01088e-08, Final residual = 1.20216e-10, No Iterations 2
bounding nuTilda, min: -0.000174066 max: 0.410357 average: 0.0271041
ExecutionTime = 368.29 s  ClockTime = 369 s

forces wings output:
    sum of forces:
        pressure : (0.144731 17.7581 -5.86138e-21)
        viscous  : (0.25629 0.00741213 1.78488e-22)
        porous   : (0 0 0)
    sum of moments:
        pressure : (-0.887903 0.00723655 4.70959)
        viscous  : (-0.000370606 0.0128145 -0.0208498)
        porous   : (0 0 0)

End

