/*---------------------------------------------------------------------------*\
| =========                 |                                                 |
| \\      /  F ield         | OpenFOAM: The Open Source CFD Toolbox           |
|  \\    /   O peration     | Version:  2.3.0                                 |
|   \\  /    A nd           | Web:      www.OpenFOAM.org                      |
|    \\/     M anipulation  |                                                 |
\*---------------------------------------------------------------------------*/
Build  : 2.3.0-f5222ca19ce6
Exec   : simpleFoam -case Runs/first_flatplate_300_18/case
Date   : Jan 11 2015
Time   : 13:33:03
Host   : "lordvon-XPS-8300"
PID    : 6375
Case   : Runs/first_flatplate_300_18/case
nProcs : 1
sigFpe : Enabling floating point exception trapping (FOAM_SIGFPE).
fileModificationChecking : Monitoring run-time modified files using timeStampMaster
allowSystemOperations : Disallowing user-supplied system call operations

// * * * * * * * * * * * * * * * * * * * * * * * * * * * * * * * * * * * * * //
Create time

Create mesh for time = 0

Reading field p

Reading field U

Reading/calculating face flux field phi

Selecting incompressible transport model Newtonian
Selecting RAS turbulence model SpalartAllmaras
SpalartAllmarasCoeffs
{
    sigmaNut        0.66666;
    kappa           0.41;
    Cb1             0.1355;
    Cb2             0.622;
    Cw2             0.3;
    Cw3             2;
    Cv1             7.1;
    Cv2             5;
}

    Employing Ashford correction
No finite volume options present


SIMPLE: convergence criteria
    field p	 tolerance 1e-12
    field U	 tolerance 1e-12
    field nuTilda	 tolerance 1e-12


Starting time loop

forces wings:
    Not including porosity effects

Time = 1

smoothSolver:  Solving for Ux, Initial residual = 1, Final residual = 0.00324086, No Iterations 6
smoothSolver:  Solving for Uy, Initial residual = 1, Final residual = 0.00757733, No Iterations 4
GAMG:  Solving for p, Initial residual = 1, Final residual = 0.00961838, No Iterations 12
time step continuity errors : sum local = 0.00114572, global = 4.24628e-17, cumulative = 4.24628e-17
smoothSolver:  Solving for nuTilda, Initial residual = 1, Final residual = 0.00387925, No Iterations 4
ExecutionTime = 0.4 s  ClockTime = 0 s

Time = 2

smoothSolver:  Solving for Ux, Initial residual = 0.634693, Final residual = 0.00336345, No Iterations 8
smoothSolver:  Solving for Uy, Initial residual = 0.674211, Final residual = 0.00373949, No Iterations 8
GAMG:  Solving for p, Initial residual = 0.807771, Final residual = 0.00658383, No Iterations 7
time step continuity errors : sum local = 0.00197684, global = 1.52618e-16, cumulative = 1.95081e-16
smoothSolver:  Solving for nuTilda, Initial residual = 0.184096, Final residual = 0.000674665, No Iterations 6
ExecutionTime = 0.5 s  ClockTime = 0 s

Time = 3

smoothSolver:  Solving for Ux, Initial residual = 0.242812, Final residual = 0.00126684, No Iterations 8
smoothSolver:  Solving for Uy, Initial residual = 0.243399, Final residual = 0.00133148, No Iterations 8
GAMG:  Solving for p, Initial residual = 0.638352, Final residual = 0.00517841, No Iterations 10
time step continuity errors : sum local = 0.002186, global = -1.32278e-16, cumulative = 6.28027e-17
smoothSolver:  Solving for nuTilda, Initial residual = 0.0932231, Final residual = 0.000794439, No Iterations 6
ExecutionTime = 0.61 s  ClockTime = 0 s

Time = 4

smoothSolver:  Solving for Ux, Initial residual = 0.0841475, Final residual = 0.000380197, No Iterations 8
smoothSolver:  Solving for Uy, Initial residual = 0.0817852, Final residual = 0.000425968, No Iterations 8
GAMG:  Solving for p, Initial residual = 0.540942, Final residual = 0.00523474, No Iterations 8
time step continuity errors : sum local = 0.00206838, global = 1.71656e-17, cumulative = 7.99684e-17
smoothSolver:  Solving for nuTilda, Initial residual = 0.0706164, Final residual = 0.000189493, No Iterations 8
ExecutionTime = 0.72 s  ClockTime = 0 s

Time = 5

smoothSolver:  Solving for Ux, Initial residual = 0.237016, Final residual = 0.00122163, No Iterations 8
smoothSolver:  Solving for Uy, Initial residual = 0.235722, Final residual = 0.00126316, No Iterations 8
GAMG:  Solving for p, Initial residual = 0.50321, Final residual = 0.00441778, No Iterations 7
time step continuity errors : sum local = 0.00180558, global = 2.41853e-16, cumulative = 3.21821e-16
smoothSolver:  Solving for nuTilda, Initial residual = 0.0582338, Final residual = 0.000173814, No Iterations 8
ExecutionTime = 0.83 s  ClockTime = 1 s

forces wings output:
    sum of forces:
        pressure : (-684.434 -2106.47 -1.08034e-17)
        viscous  : (0.495959 -0.108901 1.35655e-19)
        porous   : (0 0 0)
    sum of moments:
        pressure : (105.323 -34.2217 -556.362)
        viscous  : (0.00544505 0.024798 0.0125164)
        porous   : (0 0 0)

Time = 6

smoothSolver:  Solving for Ux, Initial residual = 0.200567, Final residual = 0.000993351, No Iterations 8
smoothSolver:  Solving for Uy, Initial residual = 0.209161, Final residual = 0.00111047, No Iterations 8
GAMG:  Solving for p, Initial residual = 0.408942, Final residual = 0.00372364, No Iterations 9
time step continuity errors : sum local = 0.00150927, global = -1.49952e-17, cumulative = 3.06826e-16
smoothSolver:  Solving for nuTilda, Initial residual = 0.0486507, Final residual = 0.000152352, No Iterations 8
ExecutionTime = 0.94 s  ClockTime = 1 s

Time = 7

smoothSolver:  Solving for Ux, Initial residual = 0.15788, Final residual = 0.000731128, No Iterations 8
smoothSolver:  Solving for Uy, Initial residual = 0.177574, Final residual = 0.00091815, No Iterations 8
GAMG:  Solving for p, Initial residual = 0.313623, Final residual = 0.00300692, No Iterations 7
time step continuity errors : sum local = 0.00117497, global = -1.82655e-16, cumulative = 1.24171e-16
smoothSolver:  Solving for nuTilda, Initial residual = 0.0407799, Final residual = 0.000130975, No Iterations 8
ExecutionTime = 1.05 s  ClockTime = 1 s

Time = 8

smoothSolver:  Solving for Ux, Initial residual = 0.167482, Final residual = 0.000835712, No Iterations 8
smoothSolver:  Solving for Uy, Initial residual = 0.177648, Final residual = 0.000931188, No Iterations 8
GAMG:  Solving for p, Initial residual = 0.353081, Final residual = 0.00323981, No Iterations 7
time step continuity errors : sum local = 0.00133832, global = -2.24825e-16, cumulative = -1.00654e-16
smoothSolver:  Solving for nuTilda, Initial residual = 0.0343446, Final residual = 0.000112736, No Iterations 8
ExecutionTime = 1.15 s  ClockTime = 1 s

Time = 9

smoothSolver:  Solving for Ux, Initial residual = 0.0564739, Final residual = 0.000257242, No Iterations 8
smoothSolver:  Solving for Uy, Initial residual = 0.0454249, Final residual = 0.000232271, No Iterations 8
GAMG:  Solving for p, Initial residual = 0.275431, Final residual = 0.00251275, No Iterations 9
time step continuity errors : sum local = 0.00102379, global = 5.58612e-17, cumulative = -4.47924e-17
smoothSolver:  Solving for nuTilda, Initial residual = 0.0294215, Final residual = 9.93086e-05, No Iterations 8
ExecutionTime = 1.25 s  ClockTime = 1 s

Time = 10

smoothSolver:  Solving for Ux, Initial residual = 0.0716256, Final residual = 0.000339361, No Iterations 8
smoothSolver:  Solving for Uy, Initial residual = 0.0790436, Final residual = 0.000407993, No Iterations 8
GAMG:  Solving for p, Initial residual = 0.231158, Final residual = 0.00222005, No Iterations 5
time step continuity errors : sum local = 0.000869634, global = 8.44021e-17, cumulative = 3.96097e-17
smoothSolver:  Solving for nuTilda, Initial residual = 0.0255937, Final residual = 8.94636e-05, No Iterations 8
ExecutionTime = 1.35 s  ClockTime = 1 s

forces wings output:
    sum of forces:
        pressure : (-427.277 -1315.02 -6.80202e-19)
        viscous  : (0.442054 -0.186661 8.7725e-20)
        porous   : (0 0 0)
    sum of moments:
        pressure : (65.7511 -21.3638 -354.872)
        viscous  : (0.00933306 0.0221027 -0.0104491)
        porous   : (0 0 0)

Time = 11

smoothSolver:  Solving for Ux, Initial residual = 0.0901418, Final residual = 0.000441228, No Iterations 8
smoothSolver:  Solving for Uy, Initial residual = 0.10417, Final residual = 0.000535975, No Iterations 8
GAMG:  Solving for p, Initial residual = 0.24289, Final residual = 0.00219092, No Iterations 7
time step continuity errors : sum local = 0.000877191, global = 1.31522e-16, cumulative = 1.71132e-16
smoothSolver:  Solving for nuTilda, Initial residual = 0.0225676, Final residual = 8.15825e-05, No Iterations 8
ExecutionTime = 1.45 s  ClockTime = 1 s

Time = 12

smoothSolver:  Solving for Ux, Initial residual = 0.032668, Final residual = 0.000124561, No Iterations 8
smoothSolver:  Solving for Uy, Initial residual = 0.0240306, Final residual = 0.000106854, No Iterations 8
GAMG:  Solving for p, Initial residual = 0.183406, Final residual = 0.00144312, No Iterations 9
time step continuity errors : sum local = 0.000550281, global = 7.17891e-17, cumulative = 2.42921e-16
smoothSolver:  Solving for nuTilda, Initial residual = 0.02006, Final residual = 7.4645e-05, No Iterations 8
ExecutionTime = 1.56 s  ClockTime = 1 s

Time = 13

smoothSolver:  Solving for Ux, Initial residual = 0.0613081, Final residual = 0.000282179, No Iterations 8
smoothSolver:  Solving for Uy, Initial residual = 0.0673523, Final residual = 0.000338593, No Iterations 8
GAMG:  Solving for p, Initial residual = 0.161847, Final residual = 0.00146215, No Iterations 6
time step continuity errors : sum local = 0.000545568, global = -4.12304e-16, cumulative = -1.69383e-16
smoothSolver:  Solving for nuTilda, Initial residual = 0.017875, Final residual = 6.81526e-05, No Iterations 8
ExecutionTime = 1.66 s  ClockTime = 1 s

Time = 14

smoothSolver:  Solving for Ux, Initial residual = 0.049612, Final residual = 0.000228546, No Iterations 8
smoothSolver:  Solving for Uy, Initial residual = 0.0485479, Final residual = 0.000242977, No Iterations 8
GAMG:  Solving for p, Initial residual = 0.167046, Final residual = 0.00138236, No Iterations 7
time step continuity errors : sum local = 0.000532152, global = 8.42188e-18, cumulative = -1.60961e-16
smoothSolver:  Solving for nuTilda, Initial residual = 0.0160064, Final residual = 6.24921e-05, No Iterations 8
ExecutionTime = 1.76 s  ClockTime = 1 s

Time = 15

smoothSolver:  Solving for Ux, Initial residual = 0.022099, Final residual = 8.58926e-05, No Iterations 8
smoothSolver:  Solving for Uy, Initial residual = 0.0139983, Final residual = 6.08166e-05, No Iterations 8
GAMG:  Solving for p, Initial residual = 0.123069, Final residual = 0.000968533, No Iterations 8
time step continuity errors : sum local = 0.000362802, global = 1.40992e-17, cumulative = -1.46862e-16
smoothSolver:  Solving for nuTilda, Initial residual = 0.0144419, Final residual = 5.78965e-05, No Iterations 8
ExecutionTime = 1.87 s  ClockTime = 2 s

forces wings output:
    sum of forces:
        pressure : (-154.451 -475.351 5.5673e-18)
        viscous  : (0.430723 -0.174811 -8.40859e-20)
        porous   : (0 0 0)
    sum of moments:
        pressure : (23.7676 -7.72255 -134.279)
        viscous  : (0.00874053 0.0215362 -0.00867149)
        porous   : (0 0 0)

Time = 16

smoothSolver:  Solving for Ux, Initial residual = 0.0334798, Final residual = 0.000152601, No Iterations 8
smoothSolver:  Solving for Uy, Initial residual = 0.0396076, Final residual = 0.000195444, No Iterations 8
GAMG:  Solving for p, Initial residual = 0.12061, Final residual = 0.000984279, No Iterations 6
time step continuity errors : sum local = 0.00036443, global = 1.49348e-16, cumulative = 2.48571e-18
smoothSolver:  Solving for nuTilda, Initial residual = 0.0131475, Final residual = 5.4228e-05, No Iterations 8
ExecutionTime = 1.97 s  ClockTime = 2 s

Time = 17

smoothSolver:  Solving for Ux, Initial residual = 0.0245398, Final residual = 0.000108672, No Iterations 8
smoothSolver:  Solving for Uy, Initial residual = 0.0289631, Final residual = 0.000139022, No Iterations 8
GAMG:  Solving for p, Initial residual = 0.118767, Final residual = 0.000949919, No Iterations 6
time step continuity errors : sum local = 0.000353223, global = 1.45098e-17, cumulative = 1.69956e-17
smoothSolver:  Solving for nuTilda, Initial residual = 0.0120666, Final residual = 5.10518e-05, No Iterations 8
ExecutionTime = 2.07 s  ClockTime = 2 s

Time = 18

smoothSolver:  Solving for Ux, Initial residual = 0.0169687, Final residual = 6.52703e-05, No Iterations 8
smoothSolver:  Solving for Uy, Initial residual = 0.0160198, Final residual = 7.16929e-05, No Iterations 8
GAMG:  Solving for p, Initial residual = 0.0869739, Final residual = 0.000862099, No Iterations 6
time step continuity errors : sum local = 0.000312361, global = 8.99463e-17, cumulative = 1.06942e-16
smoothSolver:  Solving for nuTilda, Initial residual = 0.0111087, Final residual = 4.80311e-05, No Iterations 8
ExecutionTime = 2.16 s  ClockTime = 2 s

Time = 19

smoothSolver:  Solving for Ux, Initial residual = 0.0234961, Final residual = 0.000104051, No Iterations 8
smoothSolver:  Solving for Uy, Initial residual = 0.0244898, Final residual = 0.000117895, No Iterations 8
GAMG:  Solving for p, Initial residual = 0.0889002, Final residual = 0.00078181, No Iterations 6
time step continuity errors : sum local = 0.000282214, global = 3.55394e-16, cumulative = 4.62336e-16
smoothSolver:  Solving for nuTilda, Initial residual = 0.0102146, Final residual = 4.51147e-05, No Iterations 8
ExecutionTime = 2.26 s  ClockTime = 2 s

Time = 20

smoothSolver:  Solving for Ux, Initial residual = 0.0155041, Final residual = 6.5837e-05, No Iterations 8
smoothSolver:  Solving for Uy, Initial residual = 0.0118524, Final residual = 5.6259e-05, No Iterations 8
GAMG:  Solving for p, Initial residual = 0.083066, Final residual = 0.000560758, No Iterations 6
time step continuity errors : sum local = 0.000203788, global = -9.81786e-17, cumulative = 3.64157e-16
smoothSolver:  Solving for nuTilda, Initial residual = 0.00943334, Final residual = 4.24525e-05, No Iterations 8
ExecutionTime = 2.36 s  ClockTime = 2 s

forces wings output:
    sum of forces:
        pressure : (-24.8524 -76.4879 7.05341e-18)
        viscous  : (0.422948 -0.151961 -1.8022e-19)
        porous   : (0 0 0)
    sum of moments:
        pressure : (3.8244 -1.24262 -27.2988)
        viscous  : (0.00759804 0.0211474 -0.00374158)
        porous   : (0 0 0)

Time = 21

smoothSolver:  Solving for Ux, Initial residual = 0.0131085, Final residual = 5.44809e-05, No Iterations 8
smoothSolver:  Solving for Uy, Initial residual = 0.010862, Final residual = 5.04965e-05, No Iterations 8
GAMG:  Solving for p, Initial residual = 0.060388, Final residual = 0.000450889, No Iterations 6
time step continuity errors : sum local = 0.000162313, global = -1.24178e-16, cumulative = 2.3998e-16
smoothSolver:  Solving for nuTilda, Initial residual = 0.00879361, Final residual = 4.01487e-05, No Iterations 8
ExecutionTime = 2.46 s  ClockTime = 2 s

Time = 22

smoothSolver:  Solving for Ux, Initial residual = 0.0129587, Final residual = 5.71011e-05, No Iterations 8
smoothSolver:  Solving for Uy, Initial residual = 0.0152465, Final residual = 7.29681e-05, No Iterations 8
GAMG:  Solving for p, Initial residual = 0.0602864, Final residual = 0.000455277, No Iterations 6
time step continuity errors : sum local = 0.00016451, global = -1.36417e-16, cumulative = 1.03562e-16
smoothSolver:  Solving for nuTilda, Initial residual = 0.00826737, Final residual = 3.81586e-05, No Iterations 8
ExecutionTime = 2.56 s  ClockTime = 2 s

Time = 23

smoothSolver:  Solving for Ux, Initial residual = 0.00728844, Final residual = 2.82611e-05, No Iterations 8
smoothSolver:  Solving for Uy, Initial residual = 0.00710811, Final residual = 3.27142e-05, No Iterations 8
GAMG:  Solving for p, Initial residual = 0.0560454, Final residual = 0.000449047, No Iterations 6
time step continuity errors : sum local = 0.00016329, global = -2.81694e-16, cumulative = -1.78132e-16
smoothSolver:  Solving for nuTilda, Initial residual = 0.00782592, Final residual = 3.6354e-05, No Iterations 8
ExecutionTime = 2.66 s  ClockTime = 2 s

Time = 24

smoothSolver:  Solving for Ux, Initial residual = 0.0094451, Final residual = 3.79038e-05, No Iterations 8
smoothSolver:  Solving for Uy, Initial residual = 0.00859646, Final residual = 4.04639e-05, No Iterations 8
GAMG:  Solving for p, Initial residual = 0.0431533, Final residual = 0.000431422, No Iterations 5
time step continuity errors : sum local = 0.000154462, global = 9.51804e-17, cumulative = -8.29511e-17
smoothSolver:  Solving for nuTilda, Initial residual = 0.0074308, Final residual = 3.46474e-05, No Iterations 8
ExecutionTime = 2.75 s  ClockTime = 2 s

Time = 25

smoothSolver:  Solving for Ux, Initial residual = 0.0099709, Final residual = 4.19872e-05, No Iterations 8
smoothSolver:  Solving for Uy, Initial residual = 0.00834489, Final residual = 3.91435e-05, No Iterations 8
GAMG:  Solving for p, Initial residual = 0.0405026, Final residual = 0.000248106, No Iterations 6
time step continuity errors : sum local = 8.88794e-05, global = -9.34949e-17, cumulative = -1.76446e-16
smoothSolver:  Solving for nuTilda, Initial residual = 0.00705741, Final residual = 3.30227e-05, No Iterations 8
ExecutionTime = 2.85 s  ClockTime = 3 s

forces wings output:
    sum of forces:
        pressure : (12.5848 38.732 6.37613e-18)
        viscous  : (0.411875 -0.137281 -1.90891e-19)
        porous   : (0 0 0)
    sum of moments:
        pressure : (-1.9366 0.62924 4.43991)
        viscous  : (0.00686406 0.0205938 -0.00101697)
        porous   : (0 0 0)

Time = 26

smoothSolver:  Solving for Ux, Initial residual = 0.00707816, Final residual = 2.84878e-05, No Iterations 8
smoothSolver:  Solving for Uy, Initial residual = 0.00368359, Final residual = 1.6308e-05, No Iterations 8
GAMG:  Solving for p, Initial residual = 0.0373127, Final residual = 0.000281159, No Iterations 5
time step continuity errors : sum local = 0.000101168, global = -8.11326e-17, cumulative = -2.57579e-16
smoothSolver:  Solving for nuTilda, Initial residual = 0.00671151, Final residual = 3.14832e-05, No Iterations 8
ExecutionTime = 2.95 s  ClockTime = 3 s

Time = 27

smoothSolver:  Solving for Ux, Initial residual = 0.00725089, Final residual = 3.02609e-05, No Iterations 8
smoothSolver:  Solving for Uy, Initial residual = 0.00591397, Final residual = 2.77435e-05, No Iterations 8
GAMG:  Solving for p, Initial residual = 0.0307303, Final residual = 0.000150107, No Iterations 6
time step continuity errors : sum local = 5.33913e-05, global = 1.69827e-16, cumulative = -8.77519e-17
smoothSolver:  Solving for nuTilda, Initial residual = 0.00639643, Final residual = 3.00908e-05, No Iterations 8
ExecutionTime = 3.05 s  ClockTime = 3 s

Time = 28

smoothSolver:  Solving for Ux, Initial residual = 0.00591503, Final residual = 2.45262e-05, No Iterations 8
smoothSolver:  Solving for Uy, Initial residual = 0.00562907, Final residual = 2.62523e-05, No Iterations 8
GAMG:  Solving for p, Initial residual = 0.0272104, Final residual = 0.000138658, No Iterations 6
time step continuity errors : sum local = 4.97322e-05, global = 1.09235e-16, cumulative = 2.14828e-17
smoothSolver:  Solving for nuTilda, Initial residual = 0.00611439, Final residual = 2.88231e-05, No Iterations 8
ExecutionTime = 3.14 s  ClockTime = 3 s

Time = 29

smoothSolver:  Solving for Ux, Initial residual = 0.0050469, Final residual = 2.01055e-05, No Iterations 8
smoothSolver:  Solving for Uy, Initial residual = 0.00364821, Final residual = 1.66653e-05, No Iterations 8
GAMG:  Solving for p, Initial residual = 0.0252749, Final residual = 0.000219994, No Iterations 5
time step continuity errors : sum local = 7.94729e-05, global = -3.23951e-16, cumulative = -3.02469e-16
smoothSolver:  Solving for nuTilda, Initial residual = 0.00585787, Final residual = 2.76509e-05, No Iterations 8
ExecutionTime = 3.23 s  ClockTime = 3 s

Time = 30

smoothSolver:  Solving for Ux, Initial residual = 0.00584131, Final residual = 2.38977e-05, No Iterations 8
smoothSolver:  Solving for Uy, Initial residual = 0.00418329, Final residual = 1.99712e-05, No Iterations 8
GAMG:  Solving for p, Initial residual = 0.0230324, Final residual = 0.000100101, No Iterations 6
time step continuity errors : sum local = 3.59118e-05, global = -3.83063e-17, cumulative = -3.40775e-16
smoothSolver:  Solving for nuTilda, Initial residual = 0.00561356, Final residual = 2.65216e-05, No Iterations 8
ExecutionTime = 3.33 s  ClockTime = 3 s

forces wings output:
    sum of forces:
        pressure : (14.9458 45.9985 6.1573e-18)
        viscous  : (0.398385 -0.129235 -1.97425e-19)
        porous   : (0 0 0)
    sum of moments:
        pressure : (-2.29993 0.747292 6.62979)
        viscous  : (0.00646173 0.0199193 -0.000110795)
        porous   : (0 0 0)

Time = 31

smoothSolver:  Solving for Ux, Initial residual = 0.00546166, Final residual = 2.2601e-05, No Iterations 8
smoothSolver:  Solving for Uy, Initial residual = 0.00304256, Final residual = 1.46135e-05, No Iterations 8
GAMG:  Solving for p, Initial residual = 0.0188074, Final residual = 0.000185356, No Iterations 5
time step continuity errors : sum local = 6.63461e-05, global = -1.64727e-16, cumulative = -5.05502e-16
smoothSolver:  Solving for nuTilda, Initial residual = 0.00537263, Final residual = 2.54361e-05, No Iterations 8
ExecutionTime = 3.42 s  ClockTime = 3 s

Time = 32

smoothSolver:  Solving for Ux, Initial residual = 0.0049993, Final residual = 2.09489e-05, No Iterations 8
smoothSolver:  Solving for Uy, Initial residual = 0.00256567, Final residual = 1.21747e-05, No Iterations 8
GAMG:  Solving for p, Initial residual = 0.0162702, Final residual = 7.32212e-05, No Iterations 5
time step continuity errors : sum local = 2.63411e-05, global = 2.18055e-16, cumulative = -2.87447e-16
smoothSolver:  Solving for nuTilda, Initial residual = 0.00514492, Final residual = 2.43904e-05, No Iterations 8
ExecutionTime = 3.51 s  ClockTime = 3 s

Time = 33

smoothSolver:  Solving for Ux, Initial residual = 0.00478858, Final residual = 2.01188e-05, No Iterations 8
smoothSolver:  Solving for Uy, Initial residual = 0.00315703, Final residual = 1.53578e-05, No Iterations 8
GAMG:  Solving for p, Initial residual = 0.0159845, Final residual = 0.000155688, No Iterations 5
time step continuity errors : sum local = 5.54821e-05, global = 3.36797e-16, cumulative = 4.93507e-17
smoothSolver:  Solving for nuTilda, Initial residual = 0.00493917, Final residual = 2.34205e-05, No Iterations 8
ExecutionTime = 3.59 s  ClockTime = 3 s

Time = 34

smoothSolver:  Solving for Ux, Initial residual = 0.00438683, Final residual = 1.83628e-05, No Iterations 8
smoothSolver:  Solving for Uy, Initial residual = 0.00255123, Final residual = 1.2736e-05, No Iterations 8
GAMG:  Solving for p, Initial residual = 0.0136163, Final residual = 9.02887e-05, No Iterations 5
time step continuity errors : sum local = 3.24821e-05, global = 3.28348e-17, cumulative = 8.21855e-17
smoothSolver:  Solving for nuTilda, Initial residual = 0.00475185, Final residual = 2.25156e-05, No Iterations 8
ExecutionTime = 3.68 s  ClockTime = 3 s

Time = 35

smoothSolver:  Solving for Ux, Initial residual = 0.00436923, Final residual = 1.83268e-05, No Iterations 8
smoothSolver:  Solving for Uy, Initial residual = 0.00247675, Final residual = 1.22348e-05, No Iterations 8
GAMG:  Solving for p, Initial residual = 0.0115879, Final residual = 9.88248e-05, No Iterations 5
time step continuity errors : sum local = 3.58919e-05, global = 7.44807e-17, cumulative = 1.56666e-16
smoothSolver:  Solving for nuTilda, Initial residual = 0.00457682, Final residual = 2.16503e-05, No Iterations 8
ExecutionTime = 3.78 s  ClockTime = 3 s

forces wings output:
    sum of forces:
        pressure : (11.2954 34.7635 6.29458e-18)
        viscous  : (0.383935 -0.123962 -2.1258e-19)
        porous   : (0 0 0)
    sum of moments:
        pressure : (-1.73818 0.564768 3.45753)
        viscous  : (0.0061981 0.0191968 2.96267e-05)
        porous   : (0 0 0)

Time = 36

smoothSolver:  Solving for Ux, Initial residual = 0.00438782, Final residual = 1.85377e-05, No Iterations 8
smoothSolver:  Solving for Uy, Initial residual = 0.00231532, Final residual = 1.1681e-05, No Iterations 8
GAMG:  Solving for p, Initial residual = 0.0114099, Final residual = 0.000106471, No Iterations 5
time step continuity errors : sum local = 3.82136e-05, global = -2.27947e-16, cumulative = -7.12808e-17
smoothSolver:  Solving for nuTilda, Initial residual = 0.00441322, Final residual = 2.08378e-05, No Iterations 8
ExecutionTime = 3.88 s  ClockTime = 4 s

Time = 37

smoothSolver:  Solving for Ux, Initial residual = 0.00426907, Final residual = 1.82506e-05, No Iterations 8
smoothSolver:  Solving for Uy, Initial residual = 0.00178368, Final residual = 9.33757e-06, No Iterations 8
GAMG:  Solving for p, Initial residual = 0.00995045, Final residual = 6.7383e-05, No Iterations 5
time step continuity errors : sum local = 2.45105e-05, global = 8.1086e-17, cumulative = 9.80519e-18
smoothSolver:  Solving for nuTilda, Initial residual = 0.0042535, Final residual = 2.00581e-05, No Iterations 8
ExecutionTime = 3.98 s  ClockTime = 4 s

Time = 38

smoothSolver:  Solving for Ux, Initial residual = 0.00412094, Final residual = 1.78038e-05, No Iterations 8
smoothSolver:  Solving for Uy, Initial residual = 0.0019155, Final residual = 9.95168e-06, No Iterations 8
GAMG:  Solving for p, Initial residual = 0.00897086, Final residual = 8.40042e-05, No Iterations 4
time step continuity errors : sum local = 3.03256e-05, global = 2.23469e-17, cumulative = 3.21521e-17
smoothSolver:  Solving for nuTilda, Initial residual = 0.00410585, Final residual = 1.93396e-05, No Iterations 8
ExecutionTime = 4.07 s  ClockTime = 4 s

Time = 39

smoothSolver:  Solving for Ux, Initial residual = 0.00394925, Final residual = 1.7129e-05, No Iterations 8
smoothSolver:  Solving for Uy, Initial residual = 0.0019915, Final residual = 1.04372e-05, No Iterations 8
GAMG:  Solving for p, Initial residual = 0.00869886, Final residual = 5.73806e-05, No Iterations 5
time step continuity errors : sum local = 2.06829e-05, global = 1.984e-16, cumulative = 2.30552e-16
smoothSolver:  Solving for nuTilda, Initial residual = 0.00396364, Final residual = 1.86426e-05, No Iterations 8
ExecutionTime = 4.16 s  ClockTime = 4 s

Time = 40

smoothSolver:  Solving for Ux, Initial residual = 0.00381872, Final residual = 1.65716e-05, No Iterations 8
smoothSolver:  Solving for Uy, Initial residual = 0.00180723, Final residual = 9.7019e-06, No Iterations 8
GAMG:  Solving for p, Initial residual = 0.00760028, Final residual = 6.09757e-05, No Iterations 5
time step continuity errors : sum local = 2.21455e-05, global = 8.18082e-17, cumulative = 3.1236e-16
smoothSolver:  Solving for nuTilda, Initial residual = 0.00383432, Final residual = 1.80009e-05, No Iterations 8
ExecutionTime = 4.26 s  ClockTime = 4 s

forces wings output:
    sum of forces:
        pressure : (9.00571 27.7167 6.68976e-18)
        viscous  : (0.369202 -0.119367 -2.33621e-19)
        porous   : (0 0 0)
    sum of moments:
        pressure : (-1.38584 0.450285 1.34041)
        viscous  : (0.00596836 0.0184601 -9.46496e-06)
        porous   : (0 0 0)

Time = 41

smoothSolver:  Solving for Ux, Initial residual = 0.00377452, Final residual = 1.64199e-05, No Iterations 8
smoothSolver:  Solving for Uy, Initial residual = 0.001782, Final residual = 9.5879e-06, No Iterations 8
GAMG:  Solving for p, Initial residual = 0.00693795, Final residual = 6.04996e-05, No Iterations 5
time step continuity errors : sum local = 2.20104e-05, global = 1.91518e-17, cumulative = 3.31512e-16
smoothSolver:  Solving for nuTilda, Initial residual = 0.00370666, Final residual = 1.73749e-05, No Iterations 8
ExecutionTime = 4.36 s  ClockTime = 4 s

Time = 42

smoothSolver:  Solving for Ux, Initial residual = 0.00373834, Final residual = 1.63895e-05, No Iterations 8
smoothSolver:  Solving for Uy, Initial residual = 0.00163093, Final residual = 8.93181e-06, No Iterations 8
GAMG:  Solving for p, Initial residual = 0.00674433, Final residual = 4.48538e-05, No Iterations 5
time step continuity errors : sum local = 1.61935e-05, global = -2.98452e-18, cumulative = 3.28528e-16
smoothSolver:  Solving for nuTilda, Initial residual = 0.00358929, Final residual = 1.67977e-05, No Iterations 8
ExecutionTime = 4.45 s  ClockTime = 4 s

Time = 43

smoothSolver:  Solving for Ux, Initial residual = 0.00368113, Final residual = 1.62657e-05, No Iterations 8
smoothSolver:  Solving for Uy, Initial residual = 0.00155506, Final residual = 8.61473e-06, No Iterations 8
GAMG:  Solving for p, Initial residual = 0.00620373, Final residual = 3.64914e-05, No Iterations 5
time step continuity errors : sum local = 1.32298e-05, global = 7.47568e-17, cumulative = 4.03284e-16
smoothSolver:  Solving for nuTilda, Initial residual = 0.00347183, Final residual = 1.62315e-05, No Iterations 8
ExecutionTime = 4.54 s  ClockTime = 4 s

Time = 44

smoothSolver:  Solving for Ux, Initial residual = 0.00359244, Final residual = 1.59574e-05, No Iterations 8
smoothSolver:  Solving for Uy, Initial residual = 0.00158239, Final residual = 8.76511e-06, No Iterations 8
GAMG:  Solving for p, Initial residual = 0.00582955, Final residual = 4.51389e-05, No Iterations 4
time step continuity errors : sum local = 1.62738e-05, global = 1.11916e-16, cumulative = 5.15201e-16
smoothSolver:  Solving for nuTilda, Initial residual = 0.00336193, Final residual = 1.57041e-05, No Iterations 8
ExecutionTime = 4.63 s  ClockTime = 4 s

Time = 45

smoothSolver:  Solving for Ux, Initial residual = 0.00348898, Final residual = 1.55436e-05, No Iterations 8
smoothSolver:  Solving for Uy, Initial residual = 0.00157229, Final residual = 8.77474e-06, No Iterations 8
GAMG:  Solving for p, Initial residual = 0.00552597, Final residual = 4.67967e-05, No Iterations 4
time step continuity errors : sum local = 1.69279e-05, global = 1.56589e-16, cumulative = 6.7179e-16
smoothSolver:  Solving for nuTilda, Initial residual = 0.00325454, Final residual = 1.51876e-05, No Iterations 8
ExecutionTime = 4.71 s  ClockTime = 4 s

forces wings output:
    sum of forces:
        pressure : (8.57736 26.3984 7.11309e-18)
        viscous  : (0.355226 -0.11505 -2.5686e-19)
        porous   : (0 0 0)
    sum of moments:
        pressure : (-1.31992 0.428868 0.772222)
        viscous  : (0.00575249 0.0177613 -5.34485e-05)
        porous   : (0 0 0)

Time = 46

smoothSolver:  Solving for Ux, Initial residual = 0.00340188, Final residual = 1.5172e-05, No Iterations 8
smoothSolver:  Solving for Uy, Initial residual = 0.00155978, Final residual = 8.77244e-06, No Iterations 8
GAMG:  Solving for p, Initial residual = 0.00515855, Final residual = 4.60828e-05, No Iterations 4
time step continuity errors : sum local = 1.66625e-05, global = -7.49193e-17, cumulative = 5.96871e-16
smoothSolver:  Solving for nuTilda, Initial residual = 0.00315652, Final residual = 1.47065e-05, No Iterations 8
ExecutionTime = 4.8 s  ClockTime = 4 s

Time = 47

smoothSolver:  Solving for Ux, Initial residual = 0.00334771, Final residual = 1.49556e-05, No Iterations 8
smoothSolver:  Solving for Uy, Initial residual = 0.00151975, Final residual = 8.62723e-06, No Iterations 8
GAMG:  Solving for p, Initial residual = 0.00488308, Final residual = 4.27387e-05, No Iterations 4
time step continuity errors : sum local = 1.53999e-05, global = 9.26171e-17, cumulative = 6.89488e-16
smoothSolver:  Solving for nuTilda, Initial residual = 0.00306173, Final residual = 1.42377e-05, No Iterations 8
ExecutionTime = 4.89 s  ClockTime = 5 s

Time = 48

smoothSolver:  Solving for Ux, Initial residual = 0.00331569, Final residual = 1.48618e-05, No Iterations 8
smoothSolver:  Solving for Uy, Initial residual = 0.00147557, Final residual = 8.43372e-06, No Iterations 8
GAMG:  Solving for p, Initial residual = 0.00464169, Final residual = 3.6069e-05, No Iterations 4
time step continuity errors : sum local = 1.30314e-05, global = 2.2308e-17, cumulative = 7.11796e-16
smoothSolver:  Solving for nuTilda, Initial residual = 0.00297152, Final residual = 1.38006e-05, No Iterations 8
ExecutionTime = 4.97 s  ClockTime = 5 s

Time = 49

smoothSolver:  Solving for Ux, Initial residual = 0.00328158, Final residual = 1.4775e-05, No Iterations 8
smoothSolver:  Solving for Uy, Initial residual = 0.00145261, Final residual = 8.32687e-06, No Iterations 8
GAMG:  Solving for p, Initial residual = 0.00445249, Final residual = 2.97419e-05, No Iterations 4
time step continuity errors : sum local = 1.07143e-05, global = -3.91854e-17, cumulative = 6.7261e-16
smoothSolver:  Solving for nuTilda, Initial residual = 0.0028831, Final residual = 1.33714e-05, No Iterations 8
ExecutionTime = 5.06 s  ClockTime = 5 s

Time = 50

smoothSolver:  Solving for Ux, Initial residual = 0.00322431, Final residual = 1.45715e-05, No Iterations 8
smoothSolver:  Solving for Uy, Initial residual = 0.0014482, Final residual = 8.32723e-06, No Iterations 8
GAMG:  Solving for p, Initial residual = 0.00435327, Final residual = 2.36919e-05, No Iterations 4
time step continuity errors : sum local = 8.57488e-06, global = 4.67238e-17, cumulative = 7.19334e-16
smoothSolver:  Solving for nuTilda, Initial residual = 0.00279904, Final residual = 1.29661e-05, No Iterations 8
ExecutionTime = 5.14 s  ClockTime = 5 s

forces wings output:
    sum of forces:
        pressure : (9.05918 27.8813 7.47412e-18)
        viscous  : (0.341227 -0.110607 -2.7794e-19)
        porous   : (0 0 0)
    sum of moments:
        pressure : (-1.39406 0.452959 1.02235)
        viscous  : (0.00553035 0.0170613 -6.70882e-05)
        porous   : (0 0 0)

Time = 51

smoothSolver:  Solving for Ux, Initial residual = 0.00315552, Final residual = 1.42984e-05, No Iterations 8
smoothSolver:  Solving for Uy, Initial residual = 0.0014545, Final residual = 8.38325e-06, No Iterations 8
GAMG:  Solving for p, Initial residual = 0.00418319, Final residual = 2.13728e-05, No Iterations 4
time step continuity errors : sum local = 7.72075e-06, global = -5.15995e-17, cumulative = 6.67735e-16
smoothSolver:  Solving for nuTilda, Initial residual = 0.00272017, Final residual = 1.25698e-05, No Iterations 8
ExecutionTime = 5.23 s  ClockTime = 5 s

Time = 52

smoothSolver:  Solving for Ux, Initial residual = 0.00309203, Final residual = 1.40339e-05, No Iterations 8
smoothSolver:  Solving for Uy, Initial residual = 0.00145322, Final residual = 8.39727e-06, No Iterations 8
GAMG:  Solving for p, Initial residual = 0.00403775, Final residual = 1.86591e-05, No Iterations 4
time step continuity errors : sum local = 6.74492e-06, global = -1.0844e-16, cumulative = 5.59294e-16
smoothSolver:  Solving for nuTilda, Initial residual = 0.0026435, Final residual = 1.21908e-05, No Iterations 8
ExecutionTime = 5.32 s  ClockTime = 5 s

Time = 53

smoothSolver:  Solving for Ux, Initial residual = 0.00304335, Final residual = 1.3833e-05, No Iterations 8
smoothSolver:  Solving for Uy, Initial residual = 0.0014367, Final residual = 8.34063e-06, No Iterations 8
GAMG:  Solving for p, Initial residual = 0.00392871, Final residual = 2.52385e-05, No Iterations 4
time step continuity errors : sum local = 9.12665e-06, global = 3.28867e-18, cumulative = 5.62583e-16
smoothSolver:  Solving for nuTilda, Initial residual = 0.00256748, Final residual = 1.18258e-05, No Iterations 8
ExecutionTime = 5.41 s  ClockTime = 5 s

Time = 54

smoothSolver:  Solving for Ux, Initial residual = 0.00300485, Final residual = 1.36819e-05, No Iterations 8
smoothSolver:  Solving for Uy, Initial residual = 0.00141583, Final residual = 8.25678e-06, No Iterations 8
GAMG:  Solving for p, Initial residual = 0.00379651, Final residual = 2.84726e-05, No Iterations 4
time step continuity errors : sum local = 1.02915e-05, global = -2.1639e-16, cumulative = 3.46193e-16
smoothSolver:  Solving for nuTilda, Initial residual = 0.00249408, Final residual = 1.14796e-05, No Iterations 8
ExecutionTime = 5.49 s  ClockTime = 5 s

Time = 55

smoothSolver:  Solving for Ux, Initial residual = 0.0029702, Final residual = 1.35576e-05, No Iterations 8
smoothSolver:  Solving for Uy, Initial residual = 0.00139904, Final residual = 8.18848e-06, No Iterations 8
GAMG:  Solving for p, Initial residual = 0.00371031, Final residual = 2.17803e-05, No Iterations 4
time step continuity errors : sum local = 7.84937e-06, global = -9.96364e-17, cumulative = 2.46556e-16
smoothSolver:  Solving for nuTilda, Initial residual = 0.0024235, Final residual = 1.11475e-05, No Iterations 8
ExecutionTime = 5.58 s  ClockTime = 5 s

forces wings output:
    sum of forces:
        pressure : (9.39154 28.9042 7.70319e-18)
        viscous  : (0.327899 -0.106314 -2.93928e-19)
        porous   : (0 0 0)
    sum of moments:
        pressure : (-1.44521 0.469577 1.17652)
        viscous  : (0.00531569 0.0163949 -6.67578e-05)
        porous   : (0 0 0)

Time = 56

smoothSolver:  Solving for Ux, Initial residual = 0.00293361, Final residual = 1.34212e-05, No Iterations 8
smoothSolver:  Solving for Uy, Initial residual = 0.00138896, Final residual = 8.15517e-06, No Iterations 8
GAMG:  Solving for p, Initial residual = 0.00365204, Final residual = 2.1105e-05, No Iterations 4
time step continuity errors : sum local = 7.60574e-06, global = 2.21645e-16, cumulative = 4.68201e-16
smoothSolver:  Solving for nuTilda, Initial residual = 0.00235635, Final residual = 1.08292e-05, No Iterations 8
ExecutionTime = 5.67 s  ClockTime = 5 s

Time = 57

smoothSolver:  Solving for Ux, Initial residual = 0.0028889, Final residual = 1.32365e-05, No Iterations 8
smoothSolver:  Solving for Uy, Initial residual = 0.00138548, Final residual = 8.1571e-06, No Iterations 8
GAMG:  Solving for p, Initial residual = 0.00356606, Final residual = 1.56254e-05, No Iterations 4
time step continuity errors : sum local = 5.59903e-06, global = -9.06408e-17, cumulative = 3.77561e-16
smoothSolver:  Solving for nuTilda, Initial residual = 0.00229113, Final residual = 1.05232e-05, No Iterations 8
ExecutionTime = 5.75 s  ClockTime = 5 s

Time = 58

smoothSolver:  Solving for Ux, Initial residual = 0.0028439, Final residual = 1.30458e-05, No Iterations 8
smoothSolver:  Solving for Uy, Initial residual = 0.00138204, Final residual = 8.1581e-06, No Iterations 8
GAMG:  Solving for p, Initial residual = 0.00349553, Final residual = 1.39216e-05, No Iterations 4
time step continuity errors : sum local = 5.02516e-06, global = 3.29315e-17, cumulative = 4.10492e-16
smoothSolver:  Solving for nuTilda, Initial residual = 0.00222853, Final residual = 1.02302e-05, No Iterations 8
ExecutionTime = 5.84 s  ClockTime = 6 s

Time = 59

smoothSolver:  Solving for Ux, Initial residual = 0.0028019, Final residual = 1.28698e-05, No Iterations 8
smoothSolver:  Solving for Uy, Initial residual = 0.0013754, Final residual = 8.14114e-06, No Iterations 8
GAMG:  Solving for p, Initial residual = 0.00342503, Final residual = 1.8655e-05, No Iterations 4
time step continuity errors : sum local = 6.73191e-06, global = -2.46791e-16, cumulative = 1.63701e-16
smoothSolver:  Solving for nuTilda, Initial residual = 0.00216843, Final residual = 9.9468e-06, No Iterations 8
ExecutionTime = 5.92 s  ClockTime = 6 s

Time = 60

smoothSolver:  Solving for Ux, Initial residual = 0.00276491, Final residual = 1.27196e-05, No Iterations 8
smoothSolver:  Solving for Uy, Initial residual = 0.00136537, Final residual = 8.10614e-06, No Iterations 8
GAMG:  Solving for p, Initial residual = 0.00335609, Final residual = 2.08863e-05, No Iterations 4
time step continuity errors : sum local = 7.51589e-06, global = 1.56135e-16, cumulative = 3.19836e-16
smoothSolver:  Solving for nuTilda, Initial residual = 0.0021103, Final residual = 9.6759e-06, No Iterations 8
ExecutionTime = 6.01 s  ClockTime = 6 s

forces wings output:
    sum of forces:
        pressure : (9.54139 29.3654 7.87484e-18)
        viscous  : (0.314867 -0.10211 -3.07233e-19)
        porous   : (0 0 0)
    sum of moments:
        pressure : (-1.46827 0.47707 1.16268)
        viscous  : (0.00510549 0.0157433 -6.07867e-05)
        porous   : (0 0 0)

Time = 61

smoothSolver:  Solving for Ux, Initial residual = 0.00273352, Final residual = 1.25978e-05, No Iterations 8
smoothSolver:  Solving for Uy, Initial residual = 0.00135292, Final residual = 8.05808e-06, No Iterations 8
GAMG:  Solving for p, Initial residual = 0.00330909, Final residual = 2.43757e-05, No Iterations 4
time step continuity errors : sum local = 8.79102e-06, global = 2.169e-16, cumulative = 5.36735e-16
smoothSolver:  Solving for nuTilda, Initial residual = 0.00205302, Final residual = 9.41424e-06, No Iterations 8
ExecutionTime = 6.11 s  ClockTime = 6 s

Time = 62

smoothSolver:  Solving for Ux, Initial residual = 0.00270244, Final residual = 1.24743e-05, No Iterations 8
smoothSolver:  Solving for Uy, Initial residual = 0.00134256, Final residual = 8.0209e-06, No Iterations 8
GAMG:  Solving for p, Initial residual = 0.003266, Final residual = 2.00238e-05, No Iterations 4
time step continuity errors : sum local = 7.23062e-06, global = -6.58573e-17, cumulative = 4.70878e-16
smoothSolver:  Solving for nuTilda, Initial residual = 0.00199823, Final residual = 9.16443e-06, No Iterations 8
ExecutionTime = 6.19 s  ClockTime = 6 s

Time = 63

smoothSolver:  Solving for Ux, Initial residual = 0.00267186, Final residual = 1.23496e-05, No Iterations 8
smoothSolver:  Solving for Uy, Initial residual = 0.00133375, Final residual = 7.9922e-06, No Iterations 8
GAMG:  Solving for p, Initial residual = 0.00322336, Final residual = 1.85401e-05, No Iterations 4
time step continuity errors : sum local = 6.68191e-06, global = 2.16407e-16, cumulative = 6.87285e-16
smoothSolver:  Solving for nuTilda, Initial residual = 0.00194562, Final residual = 8.92538e-06, No Iterations 8
ExecutionTime = 6.28 s  ClockTime = 6 s

Time = 64

smoothSolver:  Solving for Ux, Initial residual = 0.00263692, Final residual = 1.21998e-05, No Iterations 8
smoothSolver:  Solving for Uy, Initial residual = 0.00132895, Final residual = 7.9806e-06, No Iterations 8
GAMG:  Solving for p, Initial residual = 0.00317094, Final residual = 1.52285e-05, No Iterations 4
time step continuity errors : sum local = 5.49671e-06, global = -3.8659e-17, cumulative = 6.48626e-16
smoothSolver:  Solving for nuTilda, Initial residual = 0.00189609, Final residual = 8.69374e-06, No Iterations 8
ExecutionTime = 6.36 s  ClockTime = 6 s

Time = 65

smoothSolver:  Solving for Ux, Initial residual = 0.00260238, Final residual = 1.20527e-05, No Iterations 8
smoothSolver:  Solving for Uy, Initial residual = 0.00132431, Final residual = 7.96753e-06, No Iterations 8
GAMG:  Solving for p, Initial residual = 0.00311476, Final residual = 1.69458e-05, No Iterations 4
time step continuity errors : sum local = 6.10941e-06, global = 5.35633e-17, cumulative = 7.0219e-16
smoothSolver:  Solving for nuTilda, Initial residual = 0.00184778, Final residual = 8.47032e-06, No Iterations 8
ExecutionTime = 6.45 s  ClockTime = 6 s

forces wings output:
    sum of forces:
        pressure : (9.774 30.0813 8.03682e-18)
        viscous  : (0.302272 -0.0980427 -3.20176e-19)
        porous   : (0 0 0)
    sum of moments:
        pressure : (-1.50406 0.4887 1.20195)
        viscous  : (0.00490213 0.0151136 -5.44124e-05)
        porous   : (0 0 0)

Time = 66

smoothSolver:  Solving for Ux, Initial residual = 0.00257001, Final residual = 1.1915e-05, No Iterations 8
smoothSolver:  Solving for Uy, Initial residual = 0.00131817, Final residual = 7.94573e-06, No Iterations 8
GAMG:  Solving for p, Initial residual = 0.00306134, Final residual = 1.71031e-05, No Iterations 4
time step continuity errors : sum local = 6.18049e-06, global = 1.64785e-16, cumulative = 8.66975e-16
smoothSolver:  Solving for nuTilda, Initial residual = 0.00180155, Final residual = 8.2544e-06, No Iterations 8
ExecutionTime = 6.54 s  ClockTime = 6 s

Time = 67

smoothSolver:  Solving for Ux, Initial residual = 0.00254243, Final residual = 1.18009e-05, No Iterations 8
smoothSolver:  Solving for Uy, Initial residual = 0.00130858, Final residual = 7.90733e-06, No Iterations 8
GAMG:  Solving for p, Initial residual = 0.00301732, Final residual = 2.03229e-05, No Iterations 4
time step continuity errors : sum local = 7.31548e-06, global = 2.61666e-16, cumulative = 1.12864e-15
smoothSolver:  Solving for nuTilda, Initial residual = 0.00175628, Final residual = 8.0477e-06, No Iterations 8
ExecutionTime = 6.63 s  ClockTime = 6 s

Time = 68

smoothSolver:  Solving for Ux, Initial residual = 0.00251515, Final residual = 1.16852e-05, No Iterations 8
smoothSolver:  Solving for Uy, Initial residual = 0.00129982, Final residual = 7.87238e-06, No Iterations 8
GAMG:  Solving for p, Initial residual = 0.00297698, Final residual = 2.19914e-05, No Iterations 4
time step continuity errors : sum local = 7.91581e-06, global = 1.82728e-16, cumulative = 1.31137e-15
smoothSolver:  Solving for nuTilda, Initial residual = 0.00171343, Final residual = 7.84687e-06, No Iterations 8
ExecutionTime = 6.71 s  ClockTime = 6 s

Time = 69

smoothSolver:  Solving for Ux, Initial residual = 0.00248793, Final residual = 1.15687e-05, No Iterations 8
smoothSolver:  Solving for Uy, Initial residual = 0.00129207, Final residual = 7.84211e-06, No Iterations 8
GAMG:  Solving for p, Initial residual = 0.00294209, Final residual = 1.93862e-05, No Iterations 4
time step continuity errors : sum local = 7.00353e-06, global = -5.43715e-18, cumulative = 1.30593e-15
smoothSolver:  Solving for nuTilda, Initial residual = 0.00167169, Final residual = 7.65356e-06, No Iterations 8
ExecutionTime = 6.8 s  ClockTime = 6 s

Time = 70

smoothSolver:  Solving for Ux, Initial residual = 0.00246167, Final residual = 1.14579e-05, No Iterations 8
smoothSolver:  Solving for Uy, Initial residual = 0.00128434, Final residual = 7.81154e-06, No Iterations 8
GAMG:  Solving for p, Initial residual = 0.00290268, Final residual = 1.78636e-05, No Iterations 4
time step continuity errors : sum local = 6.4478e-06, global = 9.10369e-17, cumulative = 1.39697e-15
smoothSolver:  Solving for nuTilda, Initial residual = 0.00163116, Final residual = 7.46763e-06, No Iterations 8
ExecutionTime = 6.88 s  ClockTime = 7 s

forces wings output:
    sum of forces:
        pressure : (10.0603 30.9624 8.19195e-18)
        viscous  : (0.290118 -0.0941176 -3.32229e-19)
        porous   : (0 0 0)
    sum of moments:
        pressure : (-1.54812 0.503015 1.28658)
        viscous  : (0.00470588 0.0145059 -4.77266e-05)
        porous   : (0 0 0)

Time = 71

smoothSolver:  Solving for Ux, Initial residual = 0.00243362, Final residual = 1.13364e-05, No Iterations 8
smoothSolver:  Solving for Uy, Initial residual = 0.00127873, Final residual = 7.78908e-06, No Iterations 8
GAMG:  Solving for p, Initial residual = 0.00286034, Final residual = 1.83166e-05, No Iterations 4
time step continuity errors : sum local = 6.60175e-06, global = 8.33953e-17, cumulative = 1.48036e-15
smoothSolver:  Solving for nuTilda, Initial residual = 0.00159173, Final residual = 7.28765e-06, No Iterations 8
ExecutionTime = 6.97 s  ClockTime = 7 s

Time = 72

smoothSolver:  Solving for Ux, Initial residual = 0.00240577, Final residual = 1.12157e-05, No Iterations 8
smoothSolver:  Solving for Uy, Initial residual = 0.00127309, Final residual = 7.76563e-06, No Iterations 8
GAMG:  Solving for p, Initial residual = 0.00281524, Final residual = 1.86875e-05, No Iterations 4
time step continuity errors : sum local = 6.72898e-06, global = -3.48421e-17, cumulative = 1.44552e-15
smoothSolver:  Solving for nuTilda, Initial residual = 0.00155389, Final residual = 7.11245e-06, No Iterations 8
ExecutionTime = 7.06 s  ClockTime = 7 s

Time = 73

smoothSolver:  Solving for Ux, Initial residual = 0.00238025, Final residual = 1.11059e-05, No Iterations 8
smoothSolver:  Solving for Uy, Initial residual = 0.0012658, Final residual = 7.73424e-06, No Iterations 8
GAMG:  Solving for p, Initial residual = 0.00277605, Final residual = 2.02676e-05, No Iterations 4
time step continuity errors : sum local = 7.29863e-06, global = -8.68769e-17, cumulative = 1.35865e-15
smoothSolver:  Solving for nuTilda, Initial residual = 0.00151747, Final residual = 6.94336e-06, No Iterations 8
ExecutionTime = 7.15 s  ClockTime = 7 s

Time = 74

smoothSolver:  Solving for Ux, Initial residual = 0.00235649, Final residual = 1.10028e-05, No Iterations 8
smoothSolver:  Solving for Uy, Initial residual = 0.00125762, Final residual = 7.69826e-06, No Iterations 8
GAMG:  Solving for p, Initial residual = 0.00273909, Final residual = 2.14219e-05, No Iterations 4
time step continuity errors : sum local = 7.7132e-06, global = 4.06081e-17, cumulative = 1.39925e-15
smoothSolver:  Solving for nuTilda, Initial residual = 0.00148248, Final residual = 6.78089e-06, No Iterations 8
ExecutionTime = 7.23 s  ClockTime = 7 s

Time = 75

smoothSolver:  Solving for Ux, Initial residual = 0.00233356, Final residual = 1.09033e-05, No Iterations 8
smoothSolver:  Solving for Uy, Initial residual = 0.00124942, Final residual = 7.66162e-06, No Iterations 8
GAMG:  Solving for p, Initial residual = 0.00270411, Final residual = 2.18695e-05, No Iterations 4
time step continuity errors : sum local = 7.87555e-06, global = -1.86878e-16, cumulative = 1.21238e-15
smoothSolver:  Solving for nuTilda, Initial residual = 0.00144842, Final residual = 6.62348e-06, No Iterations 8
ExecutionTime = 7.32 s  ClockTime = 7 s

forces wings output:
    sum of forces:
        pressure : (10.315 31.7463 8.31797e-18)
        viscous  : (0.278412 -0.0903292 -3.42893e-19)
        porous   : (0 0 0)
    sum of moments:
        pressure : (-1.58731 0.51575 1.34674)
        viscous  : (0.00451646 0.0139206 -4.31466e-05)
        porous   : (0 0 0)

Time = 76

smoothSolver:  Solving for Ux, Initial residual = 0.00231059, Final residual = 1.08028e-05, No Iterations 8
smoothSolver:  Solving for Uy, Initial residual = 0.001242, Final residual = 7.62785e-06, No Iterations 8
GAMG:  Solving for p, Initial residual = 0.00266555, Final residual = 2.06739e-05, No Iterations 4
time step continuity errors : sum local = 7.44382e-06, global = 1.86404e-16, cumulative = 1.39878e-15
smoothSolver:  Solving for nuTilda, Initial residual = 0.00141598, Final residual = 6.47107e-06, No Iterations 8
ExecutionTime = 7.41 s  ClockTime = 7 s

Time = 77

smoothSolver:  Solving for Ux, Initial residual = 0.00228751, Final residual = 1.07025e-05, No Iterations 8
smoothSolver:  Solving for Uy, Initial residual = 0.00123523, Final residual = 7.59607e-06, No Iterations 8
GAMG:  Solving for p, Initial residual = 0.00262621, Final residual = 1.87382e-05, No Iterations 4
time step continuity errors : sum local = 6.75736e-06, global = 2.32208e-16, cumulative = 1.63099e-15
smoothSolver:  Solving for nuTilda, Initial residual = 0.00138471, Final residual = 6.32252e-06, No Iterations 8
ExecutionTime = 7.49 s  ClockTime = 7 s

Time = 78

smoothSolver:  Solving for Ux, Initial residual = 0.00226454, Final residual = 1.06018e-05, No Iterations 8
smoothSolver:  Solving for Uy, Initial residual = 0.00122889, Final residual = 7.56536e-06, No Iterations 8
GAMG:  Solving for p, Initial residual = 0.00258656, Final residual = 1.88081e-05, No Iterations 4
time step continuity errors : sum local = 6.7826e-06, global = 2.00904e-16, cumulative = 1.83189e-15
smoothSolver:  Solving for nuTilda, Initial residual = 0.00135446, Final residual = 6.17806e-06, No Iterations 8
ExecutionTime = 7.58 s  ClockTime = 7 s

Time = 79

smoothSolver:  Solving for Ux, Initial residual = 0.00224194, Final residual = 1.05019e-05, No Iterations 8
smoothSolver:  Solving for Uy, Initial residual = 0.00122266, Final residual = 7.53434e-06, No Iterations 8
GAMG:  Solving for p, Initial residual = 0.00255078, Final residual = 1.81746e-05, No Iterations 4
time step continuity errors : sum local = 6.57901e-06, global = -6.75535e-17, cumulative = 1.76434e-15
smoothSolver:  Solving for nuTilda, Initial residual = 0.00132505, Final residual = 6.03908e-06, No Iterations 8
ExecutionTime = 7.67 s  ClockTime = 7 s

Time = 80

smoothSolver:  Solving for Ux, Initial residual = 0.00222119, Final residual = 1.0411e-05, No Iterations 8
smoothSolver:  Solving for Uy, Initial residual = 0.00121497, Final residual = 7.49686e-06, No Iterations 8
GAMG:  Solving for p, Initial residual = 0.0025175, Final residual = 1.8353e-05, No Iterations 4
time step continuity errors : sum local = 6.63632e-06, global = 1.36297e-16, cumulative = 1.90064e-15
smoothSolver:  Solving for nuTilda, Initial residual = 0.00129659, Final residual = 5.90545e-06, No Iterations 8
ExecutionTime = 7.75 s  ClockTime = 7 s

forces wings output:
    sum of forces:
        pressure : (10.5658 32.5182 8.4629e-18)
        viscous  : (0.267105 -0.0866758 -3.54109e-19)
        porous   : (0 0 0)
    sum of moments:
        pressure : (-1.62591 0.528291 1.40018)
        viscous  : (0.00433379 0.0133553 -3.79672e-05)
        porous   : (0 0 0)

Time = 81

smoothSolver:  Solving for Ux, Initial residual = 0.00220064, Final residual = 1.03188e-05, No Iterations 8
smoothSolver:  Solving for Uy, Initial residual = 0.00120788, Final residual = 7.4613e-06, No Iterations 8
GAMG:  Solving for p, Initial residual = 0.00248686, Final residual = 1.92316e-05, No Iterations 4
time step continuity errors : sum local = 6.96271e-06, global = 1.56805e-16, cumulative = 2.05744e-15
smoothSolver:  Solving for nuTilda, Initial residual = 0.00126942, Final residual = 5.77746e-06, No Iterations 8
ExecutionTime = 7.84 s  ClockTime = 8 s

Time = 82

smoothSolver:  Solving for Ux, Initial residual = 0.00218049, Final residual = 1.02284e-05, No Iterations 8
smoothSolver:  Solving for Uy, Initial residual = 0.00120081, Final residual = 7.42549e-06, No Iterations 8
GAMG:  Solving for p, Initial residual = 0.00245772, Final residual = 1.97637e-05, No Iterations 4
time step continuity errors : sum local = 7.15619e-06, global = 1.71302e-16, cumulative = 2.22874e-15
smoothSolver:  Solving for nuTilda, Initial residual = 0.00124287, Final residual = 5.65155e-06, No Iterations 8
ExecutionTime = 7.93 s  ClockTime = 8 s

Time = 83

smoothSolver:  Solving for Ux, Initial residual = 0.00216057, Final residual = 1.0139e-05, No Iterations 8
smoothSolver:  Solving for Uy, Initial residual = 0.00119405, Final residual = 7.39028e-06, No Iterations 8
GAMG:  Solving for p, Initial residual = 0.00242842, Final residual = 1.89348e-05, No Iterations 4
time step continuity errors : sum local = 6.85457e-06, global = 1.29594e-16, cumulative = 2.35834e-15
smoothSolver:  Solving for nuTilda, Initial residual = 0.00121704, Final residual = 5.52917e-06, No Iterations 8
ExecutionTime = 8.02 s  ClockTime = 8 s

Time = 84

smoothSolver:  Solving for Ux, Initial residual = 0.00214067, Final residual = 1.0049e-05, No Iterations 8
smoothSolver:  Solving for Uy, Initial residual = 0.0011878, Final residual = 7.35653e-06, No Iterations 8
GAMG:  Solving for p, Initial residual = 0.00240053, Final residual = 1.91317e-05, No Iterations 4
time step continuity errors : sum local = 6.94892e-06, global = -5.86451e-17, cumulative = 2.29969e-15
smoothSolver:  Solving for nuTilda, Initial residual = 0.0011917, Final residual = 5.40973e-06, No Iterations 8
ExecutionTime = 8.1 s  ClockTime = 8 s

Time = 85

smoothSolver:  Solving for Ux, Initial residual = 0.00212163, Final residual = 9.96267e-06, No Iterations 8
smoothSolver:  Solving for Uy, Initial residual = 0.0011809, Final residual = 7.31959e-06, No Iterations 8
GAMG:  Solving for p, Initial residual = 0.00237388, Final residual = 1.88503e-05, No Iterations 4
time step continuity errors : sum local = 6.82785e-06, global = 2.39327e-16, cumulative = 2.53902e-15
smoothSolver:  Solving for nuTilda, Initial residual = 0.00116716, Final residual = 5.29304e-06, No Iterations 8
ExecutionTime = 8.19 s  ClockTime = 8 s

forces wings output:
    sum of forces:
        pressure : (10.8204 33.3019 8.58049e-18)
        viscous  : (0.256214 -0.0831499 -3.64251e-19)
        porous   : (0 0 0)
    sum of moments:
        pressure : (-1.6651 0.541022 1.45828)
        viscous  : (0.0041575 0.0128107 -3.45617e-05)
        porous   : (0 0 0)

Time = 86

smoothSolver:  Solving for Ux, Initial residual = 0.00210306, Final residual = 9.87896e-06, No Iterations 8
smoothSolver:  Solving for Uy, Initial residual = 0.00117385, Final residual = 7.28173e-06, No Iterations 8
GAMG:  Solving for p, Initial residual = 0.00234785, Final residual = 1.89425e-05, No Iterations 4
time step continuity errors : sum local = 6.88104e-06, global = -8.24303e-17, cumulative = 2.45659e-15
smoothSolver:  Solving for nuTilda, Initial residual = 0.00114321, Final residual = 5.17962e-06, No Iterations 8
ExecutionTime = 8.28 s  ClockTime = 8 s

Time = 87

smoothSolver:  Solving for Ux, Initial residual = 0.00208507, Final residual = 9.79649e-06, No Iterations 8
smoothSolver:  Solving for Uy, Initial residual = 0.00116658, Final residual = 7.24268e-06, No Iterations 8
GAMG:  Solving for p, Initial residual = 0.00232234, Final residual = 1.96195e-05, No Iterations 4
time step continuity errors : sum local = 7.09824e-06, global = 1.44893e-17, cumulative = 2.47108e-15
smoothSolver:  Solving for nuTilda, Initial residual = 0.00112003, Final residual = 5.06766e-06, No Iterations 8
ExecutionTime = 8.37 s  ClockTime = 8 s

Time = 88

smoothSolver:  Solving for Ux, Initial residual = 0.002067, Final residual = 9.71298e-06, No Iterations 8
smoothSolver:  Solving for Uy, Initial residual = 0.00115985, Final residual = 7.20564e-06, No Iterations 8
GAMG:  Solving for p, Initial residual = 0.00229731, Final residual = 2.06193e-05, No Iterations 4
time step continuity errors : sum local = 7.45304e-06, global = 2.49769e-16, cumulative = 2.72085e-15
smoothSolver:  Solving for nuTilda, Initial residual = 0.00109702, Final residual = 4.95905e-06, No Iterations 8
ExecutionTime = 8.45 s  ClockTime = 8 s

Time = 89

smoothSolver:  Solving for Ux, Initial residual = 0.00204945, Final residual = 9.63228e-06, No Iterations 8
smoothSolver:  Solving for Uy, Initial residual = 0.00115294, Final residual = 7.16743e-06, No Iterations 8
GAMG:  Solving for p, Initial residual = 0.00227226, Final residual = 1.97923e-05, No Iterations 4
time step continuity errors : sum local = 7.18096e-06, global = -7.61081e-17, cumulative = 2.64474e-15
smoothSolver:  Solving for nuTilda, Initial residual = 0.00107502, Final residual = 4.85367e-06, No Iterations 8
ExecutionTime = 8.54 s  ClockTime = 8 s

Time = 90

smoothSolver:  Solving for Ux, Initial residual = 0.00203308, Final residual = 9.55861e-06, No Iterations 8
smoothSolver:  Solving for Uy, Initial residual = 0.0011449, Final residual = 7.12404e-06, No Iterations 8
GAMG:  Solving for p, Initial residual = 0.0022493, Final residual = 1.95859e-05, No Iterations 4
time step continuity errors : sum local = 7.10763e-06, global = 8.30428e-17, cumulative = 2.72778e-15
smoothSolver:  Solving for nuTilda, Initial residual = 0.00105331, Final residual = 4.75109e-06, No Iterations 8
ExecutionTime = 8.62 s  ClockTime = 8 s

forces wings output:
    sum of forces:
        pressure : (11.0859 34.119 8.70345e-18)
        viscous  : (0.245899 -0.0798063 -3.73815e-19)
        porous   : (0 0 0)
    sum of moments:
        pressure : (-1.70595 0.554297 1.51737)
        viscous  : (0.00399031 0.0122949 -3.23561e-05)
        porous   : (0 0 0)

Time = 91

smoothSolver:  Solving for Ux, Initial residual = 0.00201643, Final residual = 9.48175e-06, No Iterations 8
smoothSolver:  Solving for Uy, Initial residual = 0.00113766, Final residual = 7.08348e-06, No Iterations 8
GAMG:  Solving for p, Initial residual = 0.00222551, Final residual = 2.16971e-05, No Iterations 4
time step continuity errors : sum local = 7.84343e-06, global = 3.28861e-17, cumulative = 2.76067e-15
smoothSolver:  Solving for nuTilda, Initial residual = 0.00103141, Final residual = 4.65154e-06, No Iterations 8
ExecutionTime = 8.72 s  ClockTime = 8 s

Time = 92

smoothSolver:  Solving for Ux, Initial residual = 0.0019988, Final residual = 9.39803e-06, No Iterations 8
smoothSolver:  Solving for Uy, Initial residual = 0.00113191, Final residual = 7.04858e-06, No Iterations 8
GAMG:  Solving for p, Initial residual = 0.00220256, Final residual = 1.96471e-05, No Iterations 4
time step continuity errors : sum local = 7.15169e-06, global = -1.72729e-16, cumulative = 2.58794e-15
smoothSolver:  Solving for nuTilda, Initial residual = 0.00100977, Final residual = 4.55555e-06, No Iterations 8
ExecutionTime = 8.8 s  ClockTime = 8 s

Time = 93

smoothSolver:  Solving for Ux, Initial residual = 0.00198278, Final residual = 9.32448e-06, No Iterations 8
smoothSolver:  Solving for Uy, Initial residual = 0.00112435, Final residual = 7.00633e-06, No Iterations 8
GAMG:  Solving for p, Initial residual = 0.00218204, Final residual = 1.995e-05, No Iterations 4
time step continuity errors : sum local = 7.24991e-06, global = 1.73454e-17, cumulative = 2.60528e-15
smoothSolver:  Solving for nuTilda, Initial residual = 0.0009888, Final residual = 4.46335e-06, No Iterations 8
ExecutionTime = 8.89 s  ClockTime = 9 s

Time = 94

smoothSolver:  Solving for Ux, Initial residual = 0.00196708, Final residual = 9.25359e-06, No Iterations 8
smoothSolver:  Solving for Uy, Initial residual = 0.00111677, Final residual = 6.96348e-06, No Iterations 8
GAMG:  Solving for p, Initial residual = 0.00216213, Final residual = 2.03498e-05, No Iterations 4
time step continuity errors : sum local = 7.41559e-06, global = 3.54963e-17, cumulative = 2.64078e-15
smoothSolver:  Solving for nuTilda, Initial residual = 0.000968431, Final residual = 4.37466e-06, No Iterations 8
ExecutionTime = 8.97 s  ClockTime = 9 s

Time = 95

smoothSolver:  Solving for Ux, Initial residual = 0.00195148, Final residual = 9.18119e-06, No Iterations 8
smoothSolver:  Solving for Uy, Initial residual = 0.00110938, Final residual = 6.92099e-06, No Iterations 8
GAMG:  Solving for p, Initial residual = 0.00214176, Final residual = 1.94328e-05, No Iterations 4
time step continuity errors : sum local = 7.06821e-06, global = 1.06167e-16, cumulative = 2.74695e-15
smoothSolver:  Solving for nuTilda, Initial residual = 0.000948581, Final residual = 4.28893e-06, No Iterations 8
ExecutionTime = 9.06 s  ClockTime = 9 s

forces wings output:
    sum of forces:
        pressure : (11.3342 34.8832 8.79268e-18)
        viscous  : (0.236428 -0.0767336 -3.80943e-19)
        porous   : (0 0 0)
    sum of moments:
        pressure : (-1.74416 0.566712 1.56969)
        viscous  : (0.00383668 0.0118214 -3.09202e-05)
        porous   : (0 0 0)

Time = 96

smoothSolver:  Solving for Ux, Initial residual = 0.00193522, Final residual = 9.10483e-06, No Iterations 8
smoothSolver:  Solving for Uy, Initial residual = 0.00110306, Final residual = 6.88296e-06, No Iterations 8
GAMG:  Solving for p, Initial residual = 0.00212185, Final residual = 1.97674e-05, No Iterations 4
time step continuity errors : sum local = 7.1902e-06, global = -8.69222e-17, cumulative = 2.66003e-15
smoothSolver:  Solving for nuTilda, Initial residual = 0.00092932, Final residual = 4.20611e-06, No Iterations 8
ExecutionTime = 9.15 s  ClockTime = 9 s

Time = 97

smoothSolver:  Solving for Ux, Initial residual = 0.00191965, Final residual = 9.03345e-06, No Iterations 8
smoothSolver:  Solving for Uy, Initial residual = 0.00109598, Final residual = 6.84174e-06, No Iterations 8
GAMG:  Solving for p, Initial residual = 0.00210255, Final residual = 1.97903e-05, No Iterations 4
time step continuity errors : sum local = 7.19623e-06, global = 3.62864e-16, cumulative = 3.02289e-15
smoothSolver:  Solving for nuTilda, Initial residual = 0.000910842, Final residual = 4.12557e-06, No Iterations 8
ExecutionTime = 9.24 s  ClockTime = 9 s

Time = 98

smoothSolver:  Solving for Ux, Initial residual = 0.00190459, Final residual = 8.96408e-06, No Iterations 8
smoothSolver:  Solving for Uy, Initial residual = 0.00108859, Final residual = 6.79893e-06, No Iterations 8
GAMG:  Solving for p, Initial residual = 0.00208443, Final residual = 1.74903e-05, No Iterations 5
time step continuity errors : sum local = 6.39806e-06, global = 1.07918e-16, cumulative = 3.13081e-15
smoothSolver:  Solving for nuTilda, Initial residual = 0.000892752, Final residual = 4.04613e-06, No Iterations 8
ExecutionTime = 9.33 s  ClockTime = 9 s

Time = 99

smoothSolver:  Solving for Ux, Initial residual = 0.00189011, Final residual = 8.89753e-06, No Iterations 8
smoothSolver:  Solving for Uy, Initial residual = 0.00108073, Final residual = 6.75376e-06, No Iterations 8
GAMG:  Solving for p, Initial residual = 0.00206579, Final residual = 1.81474e-05, No Iterations 5
time step continuity errors : sum local = 6.64016e-06, global = -1.08675e-16, cumulative = 3.02213e-15
smoothSolver:  Solving for nuTilda, Initial residual = 0.000875163, Final residual = 3.96861e-06, No Iterations 8
ExecutionTime = 9.41 s  ClockTime = 9 s

Time = 100

smoothSolver:  Solving for Ux, Initial residual = 0.00187532, Final residual = 8.82902e-06, No Iterations 8
smoothSolver:  Solving for Uy, Initial residual = 0.00107332, Final residual = 6.71e-06, No Iterations 8
GAMG:  Solving for p, Initial residual = 0.00204501, Final residual = 1.61228e-05, No Iterations 5
time step continuity errors : sum local = 5.90249e-06, global = 9.25727e-18, cumulative = 3.03139e-15
smoothSolver:  Solving for nuTilda, Initial residual = 0.000858303, Final residual = 3.89252e-06, No Iterations 8
ExecutionTime = 9.5 s  ClockTime = 9 s

forces wings output:
    sum of forces:
        pressure : (11.592 35.6766 8.94771e-18)
        viscous  : (0.227605 -0.0738691 -3.9053e-19)
        porous   : (0 0 0)
    sum of moments:
        pressure : (-1.78383 0.579602 1.62114)
        viscous  : (0.00369346 0.0113803 -3.01873e-05)
        porous   : (0 0 0)

Time = 101

smoothSolver:  Solving for Ux, Initial residual = 0.00186065, Final residual = 8.76183e-06, No Iterations 8
smoothSolver:  Solving for Uy, Initial residual = 0.00106577, Final residual = 6.66533e-06, No Iterations 8
GAMG:  Solving for p, Initial residual = 0.00202201, Final residual = 1.50542e-05, No Iterations 5
time step continuity errors : sum local = 5.5142e-06, global = -1.09715e-16, cumulative = 2.92167e-15
smoothSolver:  Solving for nuTilda, Initial residual = 0.000841993, Final residual = 3.81807e-06, No Iterations 8
ExecutionTime = 9.6 s  ClockTime = 9 s

Time = 102

smoothSolver:  Solving for Ux, Initial residual = 0.00184616, Final residual = 8.6962e-06, No Iterations 8
smoothSolver:  Solving for Uy, Initial residual = 0.0010582, Final residual = 6.62034e-06, No Iterations 8
GAMG:  Solving for p, Initial residual = 0.00200001, Final residual = 1.88214e-05, No Iterations 4
time step continuity errors : sum local = 6.85627e-06, global = -9.17687e-17, cumulative = 2.82991e-15
smoothSolver:  Solving for nuTilda, Initial residual = 0.000826153, Final residual = 3.74503e-06, No Iterations 8
ExecutionTime = 9.69 s  ClockTime = 9 s

Time = 103

smoothSolver:  Solving for Ux, Initial residual = 0.00183167, Final residual = 8.63011e-06, No Iterations 8
smoothSolver:  Solving for Uy, Initial residual = 0.00105087, Final residual = 6.57629e-06, No Iterations 8
GAMG:  Solving for p, Initial residual = 0.00198053, Final residual = 1.9121e-05, No Iterations 4
time step continuity errors : sum local = 6.99338e-06, global = -4.70093e-17, cumulative = 2.7829e-15
smoothSolver:  Solving for nuTilda, Initial residual = 0.000810888, Final residual = 3.67338e-06, No Iterations 8
ExecutionTime = 9.78 s  ClockTime = 9 s

Time = 104

smoothSolver:  Solving for Ux, Initial residual = 0.00181781, Final residual = 8.56704e-06, No Iterations 8
smoothSolver:  Solving for Uy, Initial residual = 0.00104285, Final residual = 6.52948e-06, No Iterations 8
GAMG:  Solving for p, Initial residual = 0.00196308, Final residual = 1.41965e-05, No Iterations 5
time step continuity errors : sum local = 5.20837e-06, global = 1.4091e-16, cumulative = 2.92381e-15
smoothSolver:  Solving for nuTilda, Initial residual = 0.000796116, Final residual = 3.60331e-06, No Iterations 8
ExecutionTime = 9.87 s  ClockTime = 10 s

Time = 105

smoothSolver:  Solving for Ux, Initial residual = 0.0018041, Final residual = 8.50643e-06, No Iterations 8
smoothSolver:  Solving for Uy, Initial residual = 0.0010348, Final residual = 6.4826e-06, No Iterations 8
GAMG:  Solving for p, Initial residual = 0.0019455, Final residual = 1.87191e-05, No Iterations 4
time step continuity errors : sum local = 6.82998e-06, global = -2.22132e-16, cumulative = 2.70167e-15
smoothSolver:  Solving for nuTilda, Initial residual = 0.000781693, Final residual = 3.53639e-06, No Iterations 8
ExecutionTime = 9.95 s  ClockTime = 10 s

forces wings output:
    sum of forces:
        pressure : (11.8429 36.4488 9.07839e-18)
        viscous  : (0.219225 -0.0711427 -3.98793e-19)
        porous   : (0 0 0)
    sum of moments:
        pressure : (-1.82244 0.592146 1.6642)
        viscous  : (0.00355714 0.0109613 -3.08532e-05)
        porous   : (0 0 0)

Time = 106

smoothSolver:  Solving for Ux, Initial residual = 0.00178988, Final residual = 8.44154e-06, No Iterations 8
smoothSolver:  Solving for Uy, Initial residual = 0.00102764, Final residual = 6.43914e-06, No Iterations 8
GAMG:  Solving for p, Initial residual = 0.00192736, Final residual = 1.73078e-05, No Iterations 5
time step continuity errors : sum local = 6.35204e-06, global = -8.82554e-17, cumulative = 2.61342e-15
smoothSolver:  Solving for nuTilda, Initial residual = 0.000767882, Final residual = 3.47148e-06, No Iterations 8
ExecutionTime = 10.05 s  ClockTime = 10 s

Time = 107

smoothSolver:  Solving for Ux, Initial residual = 0.00177593, Final residual = 8.37817e-06, No Iterations 8
smoothSolver:  Solving for Uy, Initial residual = 0.00102021, Final residual = 6.39446e-06, No Iterations 8
GAMG:  Solving for p, Initial residual = 0.00191, Final residual = 1.82416e-05, No Iterations 5
time step continuity errors : sum local = 6.69833e-06, global = 6.34473e-17, cumulative = 2.67687e-15
smoothSolver:  Solving for nuTilda, Initial residual = 0.000754372, Final residual = 3.40835e-06, No Iterations 8
ExecutionTime = 10.13 s  ClockTime = 10 s

Time = 108

smoothSolver:  Solving for Ux, Initial residual = 0.00176213, Final residual = 8.31507e-06, No Iterations 8
smoothSolver:  Solving for Uy, Initial residual = 0.00101281, Final residual = 6.34995e-06, No Iterations 8
GAMG:  Solving for p, Initial residual = 0.00189261, Final residual = 1.87295e-05, No Iterations 5
time step continuity errors : sum local = 6.88171e-06, global = -4.97342e-17, cumulative = 2.62713e-15
smoothSolver:  Solving for nuTilda, Initial residual = 0.000741093, Final residual = 3.34787e-06, No Iterations 8
ExecutionTime = 10.22 s  ClockTime = 10 s

Time = 109

smoothSolver:  Solving for Ux, Initial residual = 0.00174853, Final residual = 8.25326e-06, No Iterations 8
smoothSolver:  Solving for Uy, Initial residual = 0.00100521, Final residual = 6.3046e-06, No Iterations 8
GAMG:  Solving for p, Initial residual = 0.00187532, Final residual = 9.95191e-06, No Iterations 6
time step continuity errors : sum local = 3.62219e-06, global = -2.04975e-16, cumulative = 2.42216e-15
smoothSolver:  Solving for nuTilda, Initial residual = 0.000728105, Final residual = 3.28923e-06, No Iterations 8
ExecutionTime = 10.32 s  ClockTime = 10 s

Time = 110

smoothSolver:  Solving for Ux, Initial residual = 0.00173538, Final residual = 8.19386e-06, No Iterations 8
smoothSolver:  Solving for Uy, Initial residual = 0.000997053, Final residual = 6.25702e-06, No Iterations 8
GAMG:  Solving for p, Initial residual = 0.0018573, Final residual = 1.80632e-05, No Iterations 4
time step continuity errors : sum local = 6.59622e-06, global = -9.63598e-17, cumulative = 2.3258e-15
smoothSolver:  Solving for nuTilda, Initial residual = 0.000715379, Final residual = 3.23262e-06, No Iterations 8
ExecutionTime = 10.4 s  ClockTime = 10 s

forces wings output:
    sum of forces:
        pressure : (12.0855 37.1952 9.20291e-18)
        viscous  : (0.211247 -0.0685489 -4.06512e-19)
        porous   : (0 0 0)
    sum of moments:
        pressure : (-1.85976 0.604273 1.70575)
        viscous  : (0.00342744 0.0105623 -3.10627e-05)
        porous   : (0 0 0)

Time = 111

smoothSolver:  Solving for Ux, Initial residual = 0.00172181, Final residual = 8.13259e-06, No Iterations 8
smoothSolver:  Solving for Uy, Initial residual = 0.00098957, Final residual = 6.21173e-06, No Iterations 8
GAMG:  Solving for p, Initial residual = 0.00183822, Final residual = 8.62888e-06, No Iterations 5
time step continuity errors : sum local = 3.13824e-06, global = 1.61693e-18, cumulative = 2.32741e-15
smoothSolver:  Solving for nuTilda, Initial residual = 0.000702946, Final residual = 3.17814e-06, No Iterations 8
ExecutionTime = 10.5 s  ClockTime = 10 s

Time = 112

smoothSolver:  Solving for Ux, Initial residual = 0.00170876, Final residual = 8.07452e-06, No Iterations 8
smoothSolver:  Solving for Uy, Initial residual = 0.00098132, Final residual = 6.1636e-06, No Iterations 8
GAMG:  Solving for p, Initial residual = 0.00181977, Final residual = 1.72749e-05, No Iterations 4
time step continuity errors : sum local = 6.31684e-06, global = -1.9165e-16, cumulative = 2.13576e-15
smoothSolver:  Solving for nuTilda, Initial residual = 0.000690948, Final residual = 3.12583e-06, No Iterations 8
ExecutionTime = 10.58 s  ClockTime = 10 s

Time = 113

smoothSolver:  Solving for Ux, Initial residual = 0.00169489, Final residual = 8.01108e-06, No Iterations 8
smoothSolver:  Solving for Uy, Initial residual = 0.000974784, Final residual = 6.12252e-06, No Iterations 8
GAMG:  Solving for p, Initial residual = 0.00179989, Final residual = 1.60226e-05, No Iterations 5
time step continuity errors : sum local = 5.89906e-06, global = 1.52873e-17, cumulative = 2.15105e-15
smoothSolver:  Solving for nuTilda, Initial residual = 0.000679596, Final residual = 3.07623e-06, No Iterations 8
ExecutionTime = 10.67 s  ClockTime = 10 s

Time = 114

smoothSolver:  Solving for Ux, Initial residual = 0.00168158, Final residual = 7.95067e-06, No Iterations 8
smoothSolver:  Solving for Uy, Initial residual = 0.000967461, Final residual = 6.07847e-06, No Iterations 8
GAMG:  Solving for p, Initial residual = 0.00178097, Final residual = 1.75827e-05, No Iterations 5
time step continuity errors : sum local = 6.47733e-06, global = 3.62762e-17, cumulative = 2.18733e-15
smoothSolver:  Solving for nuTilda, Initial residual = 0.000668049, Final residual = 3.02588e-06, No Iterations 8
ExecutionTime = 10.76 s  ClockTime = 10 s

Time = 115

smoothSolver:  Solving for Ux, Initial residual = 0.00166842, Final residual = 7.891e-06, No Iterations 8
smoothSolver:  Solving for Uy, Initial residual = 0.000959922, Final residual = 6.03344e-06, No Iterations 8
GAMG:  Solving for p, Initial residual = 0.00176201, Final residual = 9.33951e-06, No Iterations 6
time step continuity errors : sum local = 3.40539e-06, global = 1.63855e-16, cumulative = 2.35118e-15
smoothSolver:  Solving for nuTilda, Initial residual = 0.000656775, Final residual = 2.97737e-06, No Iterations 8
ExecutionTime = 10.85 s  ClockTime = 11 s

forces wings output:
    sum of forces:
        pressure : (12.3157 37.9037 9.33608e-18)
        viscous  : (0.203695 -0.0660919 -4.14417e-19)
        porous   : (0 0 0)
    sum of moments:
        pressure : (-1.89519 0.615784 1.74054)
        viscous  : (0.0033046 0.0101848 -3.18541e-05)
        porous   : (0 0 0)

Time = 116

smoothSolver:  Solving for Ux, Initial residual = 0.0016556, Final residual = 7.83314e-06, No Iterations 8
smoothSolver:  Solving for Uy, Initial residual = 0.000951842, Final residual = 5.98615e-06, No Iterations 8
GAMG:  Solving for p, Initial residual = 0.00174269, Final residual = 1.7247e-05, No Iterations 4
time step continuity errors : sum local = 6.31728e-06, global = 2.24868e-16, cumulative = 2.57605e-15
smoothSolver:  Solving for nuTilda, Initial residual = 0.000646174, Final residual = 2.9309e-06, No Iterations 8
ExecutionTime = 10.94 s  ClockTime = 11 s

Time = 117

smoothSolver:  Solving for Ux, Initial residual = 0.0016425, Final residual = 7.77416e-06, No Iterations 8
smoothSolver:  Solving for Uy, Initial residual = 0.000944324, Final residual = 5.94092e-06, No Iterations 8
GAMG:  Solving for p, Initial residual = 0.00172253, Final residual = 1.68857e-05, No Iterations 4
time step continuity errors : sum local = 6.21448e-06, global = -1.46866e-16, cumulative = 2.42918e-15
smoothSolver:  Solving for nuTilda, Initial residual = 0.000635907, Final residual = 2.88584e-06, No Iterations 8
ExecutionTime = 11.03 s  ClockTime = 11 s

Time = 118

smoothSolver:  Solving for Ux, Initial residual = 0.00162957, Final residual = 7.71603e-06, No Iterations 8
smoothSolver:  Solving for Uy, Initial residual = 0.000936725, Final residual = 5.89557e-06, No Iterations 8
GAMG:  Solving for p, Initial residual = 0.00170295, Final residual = 1.45666e-05, No Iterations 5
time step continuity errors : sum local = 5.37843e-06, global = 2.75643e-16, cumulative = 2.70483e-15
smoothSolver:  Solving for nuTilda, Initial residual = 0.000625822, Final residual = 2.84149e-06, No Iterations 8
ExecutionTime = 11.12 s  ClockTime = 11 s

Time = 119

smoothSolver:  Solving for Ux, Initial residual = 0.00161678, Final residual = 7.65981e-06, No Iterations 8
smoothSolver:  Solving for Uy, Initial residual = 0.00092904, Final residual = 5.85003e-06, No Iterations 8
GAMG:  Solving for p, Initial residual = 0.00168314, Final residual = 1.43665e-05, No Iterations 5
time step continuity errors : sum local = 5.3056e-06, global = -2.393e-17, cumulative = 2.6809e-15
smoothSolver:  Solving for nuTilda, Initial residual = 0.000615836, Final residual = 2.79768e-06, No Iterations 8
ExecutionTime = 11.21 s  ClockTime = 11 s

Time = 120

smoothSolver:  Solving for Ux, Initial residual = 0.0016038, Final residual = 7.60103e-06, No Iterations 8
smoothSolver:  Solving for Uy, Initial residual = 0.000921866, Final residual = 5.80651e-06, No Iterations 8
GAMG:  Solving for p, Initial residual = 0.00166298, Final residual = 1.55476e-05, No Iterations 5
time step continuity errors : sum local = 5.74229e-06, global = 2.16152e-16, cumulative = 2.89705e-15
smoothSolver:  Solving for nuTilda, Initial residual = 0.000606263, Final residual = 2.75396e-06, No Iterations 8
ExecutionTime = 11.3 s  ClockTime = 11 s

forces wings output:
    sum of forces:
        pressure : (12.5324 38.5707 9.49293e-18)
        viscous  : (0.196561 -0.0637688 -4.22898e-19)
        porous   : (0 0 0)
    sum of moments:
        pressure : (-1.92854 0.626619 1.76935)
        viscous  : (0.00318844 0.00982806 -3.32344e-05)
        porous   : (0 0 0)

Time = 121

smoothSolver:  Solving for Ux, Initial residual = 0.00159073, Final residual = 7.54137e-06, No Iterations 8
smoothSolver:  Solving for Uy, Initial residual = 0.000914974, Final residual = 5.76416e-06, No Iterations 8
GAMG:  Solving for p, Initial residual = 0.00164245, Final residual = 1.6302e-05, No Iterations 5
time step continuity errors : sum local = 6.02465e-06, global = 2.48815e-17, cumulative = 2.92193e-15
smoothSolver:  Solving for nuTilda, Initial residual = 0.000597067, Final residual = 2.71071e-06, No Iterations 8
ExecutionTime = 11.39 s  ClockTime = 11 s

Time = 122

smoothSolver:  Solving for Ux, Initial residual = 0.00157786, Final residual = 7.48319e-06, No Iterations 8
smoothSolver:  Solving for Uy, Initial residual = 0.000907857, Final residual = 5.72088e-06, No Iterations 8
GAMG:  Solving for p, Initial residual = 0.00162187, Final residual = 1.55689e-05, No Iterations 5
[...]

forces wings output:
    sum of forces:
        pressure : (8.20443 25.2506 -1.27886e-19)
        viscous  : (0.0846267 -0.0273691 2.38534e-20)
        porous   : (0 0 0)
    sum of moments:
        pressure : (-1.26253 0.410222 3.99598)
        viscous  : (0.00136846 0.00423134 -4.21757e-05)
        porous   : (0 0 0)

Time = 4971

smoothSolver:  Solving for Ux, Initial residual = 7.57119e-07, Final residual = 3.64659e-09, No Iterations 8
smoothSolver:  Solving for Uy, Initial residual = 3.79274e-06, Final residual = 2.16605e-08, No Iterations 8
GAMG:  Solving for p, Initial residual = 8.85026e-06, Final residual = 8.23867e-07, No Iterations 2
time step continuity errors : sum local = 3.11995e-07, global = -3.39276e-17, cumulative = 7.22653e-14
smoothSolver:  Solving for nuTilda, Initial residual = 6.94781e-07, Final residual = 2.41413e-09, No Iterations 8
ExecutionTime = 436.1 s  ClockTime = 437 s

Time = 4972

smoothSolver:  Solving for Ux, Initial residual = 7.54843e-07, Final residual = 3.63654e-09, No Iterations 8
smoothSolver:  Solving for Uy, Initial residual = 3.74696e-06, Final residual = 2.11712e-08, No Iterations 8
GAMG:  Solving for p, Initial residual = 8.84604e-06, Final residual = 7.79396e-07, No Iterations 2
time step continuity errors : sum local = 2.94968e-07, global = -1.41183e-16, cumulative = 7.21242e-14
smoothSolver:  Solving for nuTilda, Initial residual = 6.86776e-07, Final residual = 9.99409e-09, No Iterations 6
ExecutionTime = 436.18 s  ClockTime = 437 s

Time = 4973

smoothSolver:  Solving for Ux, Initial residual = 7.51974e-07, Final residual = 3.62917e-09, No Iterations 8
smoothSolver:  Solving for Uy, Initial residual = 3.75464e-06, Final residual = 2.14593e-08, No Iterations 8
GAMG:  Solving for p, Initial residual = 8.77108e-06, Final residual = 8.16522e-07, No Iterations 2
time step continuity errors : sum local = 3.08959e-07, global = 3.57342e-16, cumulative = 7.24815e-14
smoothSolver:  Solving for nuTilda, Initial residual = 6.87512e-07, Final residual = 9.92783e-09, No Iterations 6
ExecutionTime = 436.25 s  ClockTime = 437 s

Time = 4974

smoothSolver:  Solving for Ux, Initial residual = 7.49771e-07, Final residual = 3.61956e-09, No Iterations 8
smoothSolver:  Solving for Uy, Initial residual = 3.7084e-06, Final residual = 2.09697e-08, No Iterations 8
GAMG:  Solving for p, Initial residual = 8.76516e-06, Final residual = 7.72206e-07, No Iterations 2
time step continuity errors : sum local = 2.92028e-07, global = 2.49132e-16, cumulative = 7.27306e-14
smoothSolver:  Solving for nuTilda, Initial residual = 6.79535e-07, Final residual = 9.8782e-09, No Iterations 6
ExecutionTime = 436.33 s  ClockTime = 437 s

Time = 4975

smoothSolver:  Solving for Ux, Initial residual = 7.46919e-07, Final residual = 3.61092e-09, No Iterations 8
smoothSolver:  Solving for Uy, Initial residual = 3.71642e-06, Final residual = 2.12582e-08, No Iterations 8
GAMG:  Solving for p, Initial residual = 8.68996e-06, Final residual = 8.05775e-07, No Iterations 2
time step continuity errors : sum local = 3.05046e-07, global = -2.67005e-17, cumulative = 7.27039e-14
smoothSolver:  Solving for nuTilda, Initial residual = 6.8025e-07, Final residual = 9.81881e-09, No Iterations 6
ExecutionTime = 436.41 s  ClockTime = 437 s

forces wings output:
    sum of forces:
        pressure : (8.20508 25.2526 -1.27716e-19)
        viscous  : (0.0846264 -0.0273691 2.38394e-20)
        porous   : (0 0 0)
    sum of moments:
        pressure : (-1.26263 0.410254 3.99615)
        viscous  : (0.00136845 0.00423132 -4.21844e-05)
        porous   : (0 0 0)

Time = 4976

smoothSolver:  Solving for Ux, Initial residual = 7.44672e-07, Final residual = 3.60138e-09, No Iterations 8
smoothSolver:  Solving for Uy, Initial residual = 3.67022e-06, Final residual = 2.07665e-08, No Iterations 8
GAMG:  Solving for p, Initial residual = 8.68239e-06, Final residual = 7.63794e-07, No Iterations 2
time step continuity errors : sum local = 2.89041e-07, global = 5.53942e-18, cumulative = 7.27095e-14
smoothSolver:  Solving for nuTilda, Initial residual = 6.72234e-07, Final residual = 9.77135e-09, No Iterations 6
ExecutionTime = 436.49 s  ClockTime = 437 s

Time = 4977

smoothSolver:  Solving for Ux, Initial residual = 7.42001e-07, Final residual = 3.59495e-09, No Iterations 8
smoothSolver:  Solving for Uy, Initial residual = 3.67653e-06, Final residual = 2.10453e-08, No Iterations 8
GAMG:  Solving for p, Initial residual = 8.60657e-06, Final residual = 7.97677e-07, No Iterations 2
time step continuity errors : sum local = 3.01762e-07, global = -1.83814e-16, cumulative = 7.25257e-14
smoothSolver:  Solving for nuTilda, Initial residual = 6.7288e-07, Final residual = 9.71238e-09, No Iterations 6
ExecutionTime = 436.56 s  ClockTime = 437 s

Time = 4978

smoothSolver:  Solving for Ux, Initial residual = 7.39847e-07, Final residual = 3.58579e-09, No Iterations 8
smoothSolver:  Solving for Uy, Initial residual = 3.62981e-06, Final residual = 2.0552e-08, No Iterations 8
GAMG:  Solving for p, Initial residual = 8.5979e-06, Final residual = 7.56641e-07, No Iterations 2
time step continuity errors : sum local = 2.8608e-07, global = -3.10342e-17, cumulative = 7.24946e-14
smoothSolver:  Solving for nuTilda, Initial residual = 6.64783e-07, Final residual = 9.66466e-09, No Iterations 6
ExecutionTime = 436.64 s  ClockTime = 437 s

Time = 4979

smoothSolver:  Solving for Ux, Initial residual = 7.37204e-07, Final residual = 3.57848e-09, No Iterations 8
smoothSolver:  Solving for Uy, Initial residual = 3.63633e-06, Final residual = 2.08308e-08, No Iterations 8
GAMG:  Solving for p, Initial residual = 8.52221e-06, Final residual = 7.87426e-07, No Iterations 2
time step continuity errors : sum local = 2.98023e-07, global = 2.19772e-16, cumulative = 7.27144e-14
smoothSolver:  Solving for nuTilda, Initial residual = 6.65358e-07, Final residual = 9.60514e-09, No Iterations 6
ExecutionTime = 436.72 s  ClockTime = 437 s

Time = 4980

smoothSolver:  Solving for Ux, Initial residual = 7.35021e-07, Final residual = 3.5694e-09, No Iterations 8
smoothSolver:  Solving for Uy, Initial residual = 3.58961e-06, Final residual = 2.03371e-08, No Iterations 8
GAMG:  Solving for p, Initial residual = 8.5122e-06, Final residual = 7.48257e-07, No Iterations 2
time step continuity errors : sum local = 2.83139e-07, global = -2.74477e-16, cumulative = 7.24399e-14
smoothSolver:  Solving for nuTilda, Initial residual = 6.57216e-07, Final residual = 9.55642e-09, No Iterations 6
ExecutionTime = 436.79 s  ClockTime = 437 s

forces wings output:
    sum of forces:
        pressure : (8.20555 25.2541 -1.27488e-19)
        viscous  : (0.0846185 -0.0273665 2.38248e-20)
        porous   : (0 0 0)
    sum of moments:
        pressure : (-1.2627 0.410278 3.99643)
        viscous  : (0.00136832 0.00423093 -4.21782e-05)
        porous   : (0 0 0)

Time = 4981

smoothSolver:  Solving for Ux, Initial residual = 7.32575e-07, Final residual = 3.56409e-09, No Iterations 8
smoothSolver:  Solving for Uy, Initial residual = 3.59472e-06, Final residual = 2.06086e-08, No Iterations 8
GAMG:  Solving for p, Initial residual = 8.43596e-06, Final residual = 7.79123e-07, No Iterations 2
time step continuity errors : sum local = 2.94683e-07, global = 2.23024e-16, cumulative = 7.26629e-14
smoothSolver:  Solving for nuTilda, Initial residual = 6.5773e-07, Final residual = 9.49564e-09, No Iterations 6
ExecutionTime = 436.87 s  ClockTime = 437 s

Time = 4982

smoothSolver:  Solving for Ux, Initial residual = 7.30524e-07, Final residual = 3.5555e-09, No Iterations 8
smoothSolver:  Solving for Uy, Initial residual = 3.54772e-06, Final residual = 2.01144e-08, No Iterations 8
GAMG:  Solving for p, Initial residual = 8.42525e-06, Final residual = 7.40718e-07, No Iterations 2
time step continuity errors : sum local = 2.79995e-07, global = 1.3507e-16, cumulative = 7.2798e-14
smoothSolver:  Solving for nuTilda, Initial residual = 6.49516e-07, Final residual = 9.4462e-09, No Iterations 6
ExecutionTime = 436.95 s  ClockTime = 437 s

Time = 4983

smoothSolver:  Solving for Ux, Initial residual = 7.28209e-07, Final residual = 3.54965e-09, No Iterations 8
smoothSolver:  Solving for Uy, Initial residual = 3.55301e-06, Final residual = 2.03843e-08, No Iterations 8
GAMG:  Solving for p, Initial residual = 8.34871e-06, Final residual = 7.68472e-07, No Iterations 2
time step continuity errors : sum local = 2.90763e-07, global = -3.33824e-17, cumulative = 7.27646e-14
smoothSolver:  Solving for nuTilda, Initial residual = 6.49947e-07, Final residual = 9.38486e-09, No Iterations 6
ExecutionTime = 437.03 s  ClockTime = 437 s

Time = 4984

smoothSolver:  Solving for Ux, Initial residual = 7.26233e-07, Final residual = 3.5419e-09, No Iterations 8
smoothSolver:  Solving for Uy, Initial residual = 3.50596e-06, Final residual = 1.98886e-08, No Iterations 8
GAMG:  Solving for p, Initial residual = 8.3366e-06, Final residual = 7.31514e-07, No Iterations 2
time step continuity errors : sum local = 2.76795e-07, global = -8.12649e-17, cumulative = 7.26834e-14
smoothSolver:  Solving for nuTilda, Initial residual = 6.41646e-07, Final residual = 9.33441e-09, No Iterations 6
ExecutionTime = 437.1 s  ClockTime = 438 s

Time = 4985

smoothSolver:  Solving for Ux, Initial residual = 7.24112e-07, Final residual = 3.53793e-09, No Iterations 8
smoothSolver:  Solving for Uy, Initial residual = 3.51054e-06, Final residual = 2.01526e-08, No Iterations 8
GAMG:  Solving for p, Initial residual = 8.25997e-06, Final residual = 7.58205e-07, No Iterations 2
time step continuity errors : sum local = 2.87223e-07, global = 1.10776e-16, cumulative = 7.27941e-14
smoothSolver:  Solving for nuTilda, Initial residual = 6.42e-07, Final residual = 9.27224e-09, No Iterations 6
ExecutionTime = 437.18 s  ClockTime = 438 s

forces wings output:
    sum of forces:
        pressure : (8.20615 25.2559 -1.27439e-19)
        viscous  : (0.0846183 -0.0273665 2.38193e-20)
        porous   : (0 0 0)
    sum of moments:
        pressure : (-1.2628 0.410308 3.99659)
        viscous  : (0.00136832 0.00423091 -4.21867e-05)
        porous   : (0 0 0)

Time = 4986

smoothSolver:  Solving for Ux, Initial residual = 7.22221e-07, Final residual = 3.53109e-09, No Iterations 8
smoothSolver:  Solving for Uy, Initial residual = 3.4632e-06, Final residual = 1.96556e-08, No Iterations 8
GAMG:  Solving for p, Initial residual = 8.24679e-06, Final residual = 7.23983e-07, No Iterations 2
time step continuity errors : sum local = 2.7406e-07, global = 1.10477e-16, cumulative = 7.29046e-14
smoothSolver:  Solving for nuTilda, Initial residual = 6.33628e-07, Final residual = 9.2208e-09, No Iterations 6
ExecutionTime = 437.27 s  ClockTime = 438 s

Time = 4987

smoothSolver:  Solving for Ux, Initial residual = 7.20321e-07, Final residual = 3.52917e-09, No Iterations 8
smoothSolver:  Solving for Uy, Initial residual = 3.46582e-06, Final residual = 1.99127e-08, No Iterations 8
GAMG:  Solving for p, Initial residual = 8.16983e-06, Final residual = 7.51613e-07, No Iterations 2
time step continuity errors : sum local = 2.84218e-07, global = 1.16755e-16, cumulative = 7.30214e-14
smoothSolver:  Solving for nuTilda, Initial residual = 6.33924e-07, Final residual = 9.15754e-09, No Iterations 6
ExecutionTime = 437.35 s  ClockTime = 438 s

Time = 4988

smoothSolver:  Solving for Ux, Initial residual = 7.18602e-07, Final residual = 3.52271e-09, No Iterations 8
smoothSolver:  Solving for Uy, Initial residual = 3.4183e-06, Final residual = 1.94177e-08, No Iterations 8
GAMG:  Solving for p, Initial residual = 8.15797e-06, Final residual = 7.1764e-07, No Iterations 2
time step continuity errors : sum local = 2.71115e-07, global = -4.01834e-17, cumulative = 7.29812e-14
smoothSolver:  Solving for nuTilda, Initial residual = 6.25503e-07, Final residual = 9.10484e-09, No Iterations 6
ExecutionTime = 437.42 s  ClockTime = 438 s

Time = 4989

smoothSolver:  Solving for Ux, Initial residual = 7.16803e-07, Final residual = 3.51978e-09, No Iterations 8
smoothSolver:  Solving for Uy, Initial residual = 3.42205e-06, Final residual = 1.9677e-08, No Iterations 8
GAMG:  Solving for p, Initial residual = 8.08193e-06, Final residual = 7.40013e-07, No Iterations 2
time step continuity errors : sum local = 2.79707e-07, global = -4.24327e-17, cumulative = 7.29388e-14
smoothSolver:  Solving for nuTilda, Initial residual = 6.25753e-07, Final residual = 9.04053e-09, No Iterations 6
ExecutionTime = 437.5 s  ClockTime = 438 s

Time = 4990

smoothSolver:  Solving for Ux, Initial residual = 7.1501e-07, Final residual = 3.51336e-09, No Iterations 8
smoothSolver:  Solving for Uy, Initial residual = 3.375e-06, Final residual = 1.91787e-08, No Iterations 8
GAMG:  Solving for p, Initial residual = 8.06684e-06, Final residual = 7.06919e-07, No Iterations 2
time step continuity errors : sum local = 2.67177e-07, global = -8.75284e-17, cumulative = 7.28512e-14
smoothSolver:  Solving for nuTilda, Initial residual = 6.1727e-07, Final residual = 8.98705e-09, No Iterations 6
ExecutionTime = 437.57 s  ClockTime = 438 s

forces wings output:
    sum of forces:
        pressure : (8.20659 25.2573 -1.27295e-19)
        viscous  : (0.0846105 -0.0273639 2.38107e-20)
        porous   : (0 0 0)
    sum of moments:
        pressure : (-1.26286 0.41033 3.99688)
        viscous  : (0.00136819 0.00423053 -4.21804e-05)
        porous   : (0 0 0)

Time = 4991

smoothSolver:  Solving for Ux, Initial residual = 7.1327e-07, Final residual = 3.5115e-09, No Iterations 8
smoothSolver:  Solving for Uy, Initial residual = 3.37801e-06, Final residual = 1.94298e-08, No Iterations 8
GAMG:  Solving for p, Initial residual = 7.99006e-06, Final residual = 7.27932e-07, No Iterations 2
time step continuity errors : sum local = 2.75446e-07, global = -4.28673e-17, cumulative = 7.28084e-14
smoothSolver:  Solving for nuTilda, Initial residual = 6.17457e-07, Final residual = 8.92229e-09, No Iterations 6
ExecutionTime = 437.65 s  ClockTime = 438 s

Time = 4992

smoothSolver:  Solving for Ux, Initial residual = 7.11462e-07, Final residual = 3.50523e-09, No Iterations 8
smoothSolver:  Solving for Uy, Initial residual = 3.33052e-06, Final residual = 1.893e-08, No Iterations 8
GAMG:  Solving for p, Initial residual = 7.97457e-06, Final residual = 6.97507e-07, No Iterations 2
time step continuity errors : sum local = 2.63946e-07, global = -1.77748e-17, cumulative = 7.27906e-14
smoothSolver:  Solving for nuTilda, Initial residual = 6.08918e-07, Final residual = 8.86831e-09, No Iterations 6
ExecutionTime = 437.73 s  ClockTime = 438 s

Time = 4993

smoothSolver:  Solving for Ux, Initial residual = 7.09806e-07, Final residual = 3.50351e-09, No Iterations 8
smoothSolver:  Solving for Uy, Initial residual = 3.33253e-06, Final residual = 1.9178e-08, No Iterations 8
GAMG:  Solving for p, Initial residual = 7.89751e-06, Final residual = 7.19035e-07, No Iterations 2
time step continuity errors : sum local = 2.72345e-07, global = -6.02072e-17, cumulative = 7.27304e-14
smoothSolver:  Solving for nuTilda, Initial residual = 6.0904e-07, Final residual = 8.80265e-09, No Iterations 6
ExecutionTime = 437.81 s  ClockTime = 438 s

Time = 4994

smoothSolver:  Solving for Ux, Initial residual = 7.08073e-07, Final residual = 3.49758e-09, No Iterations 8
smoothSolver:  Solving for Uy, Initial residual = 3.28512e-06, Final residual = 1.86824e-08, No Iterations 8
GAMG:  Solving for p, Initial residual = 7.88205e-06, Final residual = 6.90841e-07, No Iterations 2
time step continuity errors : sum local = 2.61535e-07, global = -6.65272e-17, cumulative = 7.26639e-14
smoothSolver:  Solving for nuTilda, Initial residual = 6.00456e-07, Final residual = 8.74772e-09, No Iterations 6
ExecutionTime = 437.88 s  ClockTime = 438 s

Time = 4995

smoothSolver:  Solving for Ux, Initial residual = 7.06576e-07, Final residual = 3.49749e-09, No Iterations 8
smoothSolver:  Solving for Uy, Initial residual = 3.28599e-06, Final residual = 1.89279e-08, No Iterations 8
GAMG:  Solving for p, Initial residual = 7.80669e-06, Final residual = 7.12433e-07, No Iterations 2
time step continuity errors : sum local = 2.69253e-07, global = 2.72704e-17, cumulative = 7.26911e-14
smoothSolver:  Solving for nuTilda, Initial residual = 6.0054e-07, Final residual = 8.68183e-09, No Iterations 6
ExecutionTime = 437.96 s  ClockTime = 438 s

forces wings output:
    sum of forces:
        pressure : (8.20715 25.259 -1.27164e-19)
        viscous  : (0.0846105 -0.0273639 2.37993e-20)
        porous   : (0 0 0)
    sum of moments:
        pressure : (-1.26295 0.410357 3.99704)
        viscous  : (0.0013682 0.00423052 -4.21887e-05)
        porous   : (0 0 0)

Time = 4996

smoothSolver:  Solving for Ux, Initial residual = 7.04959e-07, Final residual = 3.49182e-09, No Iterations 8
smoothSolver:  Solving for Uy, Initial residual = 3.23874e-06, Final residual = 1.84324e-08, No Iterations 8
GAMG:  Solving for p, Initial residual = 7.79171e-06, Final residual = 6.83989e-07, No Iterations 2
time step continuity errors : sum local = 2.58599e-07, global = -1.29257e-16, cumulative = 7.25619e-14
smoothSolver:  Solving for nuTilda, Initial residual = 5.91904e-07, Final residual = 8.62648e-09, No Iterations 6
ExecutionTime = 438.04 s  ClockTime = 438 s

Time = 4997

smoothSolver:  Solving for Ux, Initial residual = 7.03563e-07, Final residual = 3.49126e-09, No Iterations 8
smoothSolver:  Solving for Uy, Initial residual = 3.2406e-06, Final residual = 1.86759e-08, No Iterations 8
GAMG:  Solving for p, Initial residual = 7.71588e-06, Final residual = 7.00101e-07, No Iterations 2
time step continuity errors : sum local = 2.6456e-07, global = 1.66099e-16, cumulative = 7.2728e-14
smoothSolver:  Solving for nuTilda, Initial residual = 5.91939e-07, Final residual = 8.55977e-09, No Iterations 6
ExecutionTime = 438.12 s  ClockTime = 439 s

Time = 4998

smoothSolver:  Solving for Ux, Initial residual = 7.01842e-07, Final residual = 3.48532e-09, No Iterations 8
smoothSolver:  Solving for Uy, Initial residual = 3.19353e-06, Final residual = 1.81751e-08, No Iterations 8
GAMG:  Solving for p, Initial residual = 7.69739e-06, Final residual = 6.72942e-07, No Iterations 2
time step continuity errors : sum local = 2.54359e-07, global = 9.42233e-17, cumulative = 7.28222e-14
smoothSolver:  Solving for nuTilda, Initial residual = 5.83278e-07, Final residual = 8.50367e-09, No Iterations 6
ExecutionTime = 438.19 s  ClockTime = 439 s

Time = 4999

smoothSolver:  Solving for Ux, Initial residual = 7.00465e-07, Final residual = 3.48503e-09, No Iterations 8
smoothSolver:  Solving for Uy, Initial residual = 3.19436e-06, Final residual = 1.84102e-08, No Iterations 8
GAMG:  Solving for p, Initial residual = 7.61996e-06, Final residual = 6.87546e-07, No Iterations 2
time step continuity errors : sum local = 2.5985e-07, global = -6.97086e-17, cumulative = 7.27525e-14
smoothSolver:  Solving for nuTilda, Initial residual = 5.83284e-07, Final residual = 8.43625e-09, No Iterations 6
ExecutionTime = 438.28 s  ClockTime = 439 s

Time = 5000

smoothSolver:  Solving for Ux, Initial residual = 6.98698e-07, Final residual = 3.47893e-09, No Iterations 8
smoothSolver:  Solving for Uy, Initial residual = 3.14706e-06, Final residual = 1.79113e-08, No Iterations 8
GAMG:  Solving for p, Initial residual = 7.60087e-06, Final residual = 6.63723e-07, No Iterations 2
time step continuity errors : sum local = 2.50815e-07, global = 1.05498e-16, cumulative = 7.2858e-14
smoothSolver:  Solving for nuTilda, Initial residual = 5.74589e-07, Final residual = 8.3795e-09, No Iterations 6
ExecutionTime = 438.49 s  ClockTime = 439 s

forces wings output:
    sum of forces:
        pressure : (8.20754 25.2602 -1.2714e-19)
        viscous  : (0.0846029 -0.0273614 2.37991e-20)
        porous   : (0 0 0)
    sum of moments:
        pressure : (-1.26301 0.410377 3.99733)
        viscous  : (0.00136807 0.00423015 -4.21822e-05)
        porous   : (0 0 0)

End

