/*---------------------------------------------------------------------------*\
| =========                 |                                                 |
| \\      /  F ield         | OpenFOAM: The Open Source CFD Toolbox           |
|  \\    /   O peration     | Version:  2.3.0                                 |
|   \\  /    A nd           | Web:      www.OpenFOAM.org                      |
|    \\/     M anipulation  |                                                 |
\*---------------------------------------------------------------------------*/
Build  : 2.3.0-f5222ca19ce6
Exec   : simpleFoam -case Runs/first_arc_300_30/case
Date   : Jan 12 2015
Time   : 02:09:39
Host   : "lordvon-XPS-8300"
PID    : 10530
Case   : Runs/first_arc_300_30/case
nProcs : 1
sigFpe : Enabling floating point exception trapping (FOAM_SIGFPE).
fileModificationChecking : Monitoring run-time modified files using timeStampMaster
allowSystemOperations : Disallowing user-supplied system call operations

// * * * * * * * * * * * * * * * * * * * * * * * * * * * * * * * * * * * * * //
Create time

Create mesh for time = 0

Reading field p

Reading field U

Reading/calculating face flux field phi

Selecting incompressible transport model Newtonian
Selecting RAS turbulence model SpalartAllmaras
SpalartAllmarasCoeffs
{
    sigmaNut        0.66666;
    kappa           0.41;
    Cb1             0.1355;
    Cb2             0.622;
    Cw2             0.3;
    Cw3             2;
    Cv1             7.1;
    Cv2             5;
}

    Employing Ashford correction
No finite volume options present


SIMPLE: convergence criteria
    field p	 tolerance 1e-12
    field U	 tolerance 1e-12
    field nuTilda	 tolerance 1e-12


Starting time loop

forces wings:
    Not including porosity effects

Time = 1

smoothSolver:  Solving for Ux, Initial residual = 1, Final residual = 0.00375348, No Iterations 6
smoothSolver:  Solving for Uy, Initial residual = 1, Final residual = 0.00768939, No Iterations 4
GAMG:  Solving for p, Initial residual = 1, Final residual = 0.00743194, No Iterations 13
time step continuity errors : sum local = 0.000971377, global = -9.36188e-17, cumulative = -9.36188e-17
smoothSolver:  Solving for nuTilda, Initial residual = 1, Final residual = 0.00393435, No Iterations 4
ExecutionTime = 0.36 s  ClockTime = 1 s

Time = 2

smoothSolver:  Solving for Ux, Initial residual = 0.650064, Final residual = 0.00363539, No Iterations 8
smoothSolver:  Solving for Uy, Initial residual = 0.673004, Final residual = 0.00380708, No Iterations 8
GAMG:  Solving for p, Initial residual = 0.846171, Final residual = 0.00688339, No Iterations 7
time step continuity errors : sum local = 0.00264422, global = -3.41662e-17, cumulative = -1.27785e-16
smoothSolver:  Solving for nuTilda, Initial residual = 0.184028, Final residual = 0.000710447, No Iterations 6
ExecutionTime = 0.46 s  ClockTime = 1 s

Time = 3

smoothSolver:  Solving for Ux, Initial residual = 0.221888, Final residual = 0.00122258, No Iterations 8
smoothSolver:  Solving for Uy, Initial residual = 0.236392, Final residual = 0.00132219, No Iterations 8
GAMG:  Solving for p, Initial residual = 0.688831, Final residual = 0.00661925, No Iterations 9
time step continuity errors : sum local = 0.00359742, global = 9.64601e-18, cumulative = -1.18139e-16
smoothSolver:  Solving for nuTilda, Initial residual = 0.0929334, Final residual = 0.000846768, No Iterations 6
ExecutionTime = 0.55 s  ClockTime = 1 s

Time = 4

smoothSolver:  Solving for Ux, Initial residual = 0.0707749, Final residual = 0.00036422, No Iterations 8
smoothSolver:  Solving for Uy, Initial residual = 0.0784798, Final residual = 0.000419108, No Iterations 8
GAMG:  Solving for p, Initial residual = 0.617893, Final residual = 0.00509193, No Iterations 8
time step continuity errors : sum local = 0.00240811, global = 2.88254e-16, cumulative = 1.70115e-16
smoothSolver:  Solving for nuTilda, Initial residual = 0.069821, Final residual = 0.000200441, No Iterations 8
ExecutionTime = 0.65 s  ClockTime = 1 s

Time = 5

smoothSolver:  Solving for Ux, Initial residual = 0.22206, Final residual = 0.00120995, No Iterations 8
smoothSolver:  Solving for Uy, Initial residual = 0.233565, Final residual = 0.00128097, No Iterations 8
GAMG:  Solving for p, Initial residual = 0.613731, Final residual = 0.00597012, No Iterations 7
time step continuity errors : sum local = 0.00283582, global = 4.16605e-18, cumulative = 1.74281e-16
smoothSolver:  Solving for nuTilda, Initial residual = 0.0569762, Final residual = 0.000182193, No Iterations 8
ExecutionTime = 0.74 s  ClockTime = 1 s

forces wings output:
    sum of forces:
        pressure : (-1813.31 -2908.22 2.24305e-17)
        viscous  : (0.428697 -0.150481 -1.16025e-19)
        porous   : (0 0 0)
    sum of moments:
        pressure : (145.411 -90.6656 -1073.26)
        viscous  : (0.00752403 0.0214349 -0.0150939)
        porous   : (0 0 0)

Time = 6

smoothSolver:  Solving for Ux, Initial residual = 0.194801, Final residual = 0.00104271, No Iterations 8
smoothSolver:  Solving for Uy, Initial residual = 0.207256, Final residual = 0.00113123, No Iterations 8
GAMG:  Solving for p, Initial residual = 0.516913, Final residual = 0.00472748, No Iterations 9
time step continuity errors : sum local = 0.00214955, global = 6.31616e-17, cumulative = 2.37443e-16
smoothSolver:  Solving for nuTilda, Initial residual = 0.0473188, Final residual = 0.000159259, No Iterations 8
ExecutionTime = 0.84 s  ClockTime = 1 s

Time = 7

smoothSolver:  Solving for Ux, Initial residual = 0.170612, Final residual = 0.000877728, No Iterations 8
smoothSolver:  Solving for Uy, Initial residual = 0.183454, Final residual = 0.000971319, No Iterations 8
GAMG:  Solving for p, Initial residual = 0.406119, Final residual = 0.00392778, No Iterations 7
time step continuity errors : sum local = 0.0016348, global = 9.15541e-17, cumulative = 3.28997e-16
smoothSolver:  Solving for nuTilda, Initial residual = 0.0392529, Final residual = 0.000135802, No Iterations 8
ExecutionTime = 0.93 s  ClockTime = 1 s

Time = 8

smoothSolver:  Solving for Ux, Initial residual = 0.167999, Final residual = 0.000888301, No Iterations 8
smoothSolver:  Solving for Uy, Initial residual = 0.177443, Final residual = 0.000953094, No Iterations 8
GAMG:  Solving for p, Initial residual = 0.482883, Final residual = 0.00385894, No Iterations 7
time step continuity errors : sum local = 0.0017153, global = 3.9941e-16, cumulative = 7.28407e-16
smoothSolver:  Solving for nuTilda, Initial residual = 0.032867, Final residual = 0.000116192, No Iterations 8
ExecutionTime = 1.02 s  ClockTime = 1 s

Time = 9

smoothSolver:  Solving for Ux, Initial residual = 0.0445709, Final residual = 0.000221587, No Iterations 8
smoothSolver:  Solving for Uy, Initial residual = 0.0432036, Final residual = 0.000225815, No Iterations 8
GAMG:  Solving for p, Initial residual = 0.38076, Final residual = 0.00252699, No Iterations 8
time step continuity errors : sum local = 0.00108496, global = -5.48708e-17, cumulative = 6.73536e-16
smoothSolver:  Solving for nuTilda, Initial residual = 0.028102, Final residual = 0.000101853, No Iterations 8
ExecutionTime = 1.11 s  ClockTime = 1 s

Time = 10

smoothSolver:  Solving for Ux, Initial residual = 0.0696856, Final residual = 0.000358297, No Iterations 8
smoothSolver:  Solving for Uy, Initial residual = 0.0772303, Final residual = 0.000406406, No Iterations 8
GAMG:  Solving for p, Initial residual = 0.32342, Final residual = 0.00172722, No Iterations 6
time step continuity errors : sum local = 0.00068971, global = 2.06727e-17, cumulative = 6.94209e-16
smoothSolver:  Solving for nuTilda, Initial residual = 0.0244301, Final residual = 9.10646e-05, No Iterations 8
ExecutionTime = 1.2 s  ClockTime = 1 s

forces wings output:
    sum of forces:
        pressure : (-1145.63 -1825.25 1.51867e-17)
        viscous  : (0.328357 -0.250817 -8.65414e-20)
        porous   : (0 0 0)
    sum of moments:
        pressure : (91.2626 -57.2815 -686.769)
        viscous  : (0.0125409 0.0164178 -0.0535134)
        porous   : (0 0 0)

Time = 11

smoothSolver:  Solving for Ux, Initial residual = 0.089483, Final residual = 0.000464847, No Iterations 8
smoothSolver:  Solving for Uy, Initial residual = 0.100589, Final residual = 0.00053096, No Iterations 8
GAMG:  Solving for p, Initial residual = 0.354, Final residual = 0.00271945, No Iterations 7
time step continuity errors : sum local = 0.00112001, global = -6.93246e-17, cumulative = 6.24884e-16
smoothSolver:  Solving for nuTilda, Initial residual = 0.0216145, Final residual = 8.28475e-05, No Iterations 8
ExecutionTime = 1.3 s  ClockTime = 1 s

Time = 12

smoothSolver:  Solving for Ux, Initial residual = 0.0230234, Final residual = 9.53162e-05, No Iterations 8
smoothSolver:  Solving for Uy, Initial residual = 0.022037, Final residual = 0.000100103, No Iterations 8
GAMG:  Solving for p, Initial residual = 0.268686, Final residual = 0.00170251, No Iterations 7
time step continuity errors : sum local = 0.000645751, global = 3.19863e-17, cumulative = 6.5687e-16
smoothSolver:  Solving for nuTilda, Initial residual = 0.0193016, Final residual = 7.58082e-05, No Iterations 8
ExecutionTime = 1.39 s  ClockTime = 2 s

Time = 13

smoothSolver:  Solving for Ux, Initial residual = 0.063557, Final residual = 0.000318409, No Iterations 8
smoothSolver:  Solving for Uy, Initial residual = 0.0677064, Final residual = 0.000349445, No Iterations 8
GAMG:  Solving for p, Initial residual = 0.237933, Final residual = 0.00206626, No Iterations 6
time step continuity errors : sum local = 0.000758305, global = -2.14063e-16, cumulative = 4.42808e-16
smoothSolver:  Solving for nuTilda, Initial residual = 0.0172298, Final residual = 6.91367e-05, No Iterations 8
ExecutionTime = 1.48 s  ClockTime = 2 s

Time = 14

smoothSolver:  Solving for Ux, Initial residual = 0.0458988, Final residual = 0.000227484, No Iterations 8
smoothSolver:  Solving for Uy, Initial residual = 0.0464124, Final residual = 0.000240119, No Iterations 8
GAMG:  Solving for p, Initial residual = 0.25352, Final residual = 0.00131167, No Iterations 7
time step continuity errors : sum local = 0.000502587, global = 9.10455e-17, cumulative = 5.33853e-16
smoothSolver:  Solving for nuTilda, Initial residual = 0.0154737, Final residual = 6.32512e-05, No Iterations 8
ExecutionTime = 1.57 s  ClockTime = 2 s

Time = 15

smoothSolver:  Solving for Ux, Initial residual = 0.01721, Final residual = 7.43222e-05, No Iterations 8
smoothSolver:  Solving for Uy, Initial residual = 0.0146108, Final residual = 6.79231e-05, No Iterations 8
GAMG:  Solving for p, Initial residual = 0.186414, Final residual = 0.00160034, No Iterations 6
time step continuity errors : sum local = 0.000588377, global = 2.31236e-16, cumulative = 7.6509e-16
smoothSolver:  Solving for nuTilda, Initial residual = 0.014021, Final residual = 5.84025e-05, No Iterations 8
ExecutionTime = 1.66 s  ClockTime = 2 s

forces wings output:
    sum of forces:
        pressure : (-424.775 -668.235 6.35613e-18)
        viscous  : (0.319872 -0.23478 -3.27481e-20)
        porous   : (0 0 0)
    sum of moments:
        pressure : (33.4118 -21.2388 -260.75)
        viscous  : (0.011739 0.0159936 -0.0491527)
        porous   : (0 0 0)

Time = 16

smoothSolver:  Solving for Ux, Initial residual = 0.0345761, Final residual = 0.000172737, No Iterations 8
smoothSolver:  Solving for Uy, Initial residual = 0.0385458, Final residual = 0.000196237, No Iterations 8
GAMG:  Solving for p, Initial residual = 0.180046, Final residual = 0.00106138, No Iterations 6
time step continuity errors : sum local = 0.000391797, global = 1.0204e-16, cumulative = 8.6713e-16
smoothSolver:  Solving for nuTilda, Initial residual = 0.0128156, Final residual = 5.44418e-05, No Iterations 8
ExecutionTime = 1.76 s  ClockTime = 2 s

Time = 17

smoothSolver:  Solving for Ux, Initial residual = 0.0228853, Final residual = 0.000110845, No Iterations 8
smoothSolver:  Solving for Uy, Initial residual = 0.0259709, Final residual = 0.000129865, No Iterations 8
GAMG:  Solving for p, Initial residual = 0.176119, Final residual = 0.00147943, No Iterations 6
time step continuity errors : sum local = 0.000550173, global = 7.80727e-18, cumulative = 8.74937e-16
smoothSolver:  Solving for nuTilda, Initial residual = 0.0117996, Final residual = 5.10541e-05, No Iterations 8
ExecutionTime = 1.85 s  ClockTime = 2 s

Time = 18

smoothSolver:  Solving for Ux, Initial residual = 0.0155761, Final residual = 6.82473e-05, No Iterations 8
smoothSolver:  Solving for Uy, Initial residual = 0.0162974, Final residual = 7.72564e-05, No Iterations 8
GAMG:  Solving for p, Initial residual = 0.126999, Final residual = 0.000925173, No Iterations 6
time step continuity errors : sum local = 0.000335262, global = -5.11198e-17, cumulative = 8.23817e-16
smoothSolver:  Solving for nuTilda, Initial residual = 0.0108978, Final residual = 4.79278e-05, No Iterations 8
ExecutionTime = 1.93 s  ClockTime = 2 s

Time = 19

smoothSolver:  Solving for Ux, Initial residual = 0.0233656, Final residual = 0.000111262, No Iterations 8
smoothSolver:  Solving for Uy, Initial residual = 0.0238485, Final residual = 0.00011862, No Iterations 8
GAMG:  Solving for p, Initial residual = 0.131816, Final residual = 0.000844553, No Iterations 6
time step continuity errors : sum local = 0.000302931, global = 1.57779e-16, cumulative = 9.81596e-16
smoothSolver:  Solving for nuTilda, Initial residual = 0.0101045, Final residual = 4.49335e-05, No Iterations 8
ExecutionTime = 2.02 s  ClockTime = 2 s

Time = 20

smoothSolver:  Solving for Ux, Initial residual = 0.0122246, Final residual = 5.40581e-05, No Iterations 8
smoothSolver:  Solving for Uy, Initial residual = 0.0102786, Final residual = 5.03884e-05, No Iterations 8
GAMG:  Solving for p, Initial residual = 0.120996, Final residual = 0.000918691, No Iterations 6
time step continuity errors : sum local = 0.000334112, global = 3.16917e-17, cumulative = 1.01329e-15
smoothSolver:  Solving for nuTilda, Initial residual = 0.00940602, Final residual = 4.22131e-05, No Iterations 8
ExecutionTime = 2.11 s  ClockTime = 2 s

forces wings output:
    sum of forces:
        pressure : (-82.8086 -122.238 1.64633e-18)
        viscous  : (0.32515 -0.206361 -1.02293e-20)
        porous   : (0 0 0)
    sum of moments:
        pressure : (6.11192 -4.14043 -56.5874)
        viscous  : (0.010318 0.0162575 -0.0395651)
        porous   : (0 0 0)

Time = 21

smoothSolver:  Solving for Ux, Initial residual = 0.0122483, Final residual = 5.50255e-05, No Iterations 8
smoothSolver:  Solving for Uy, Initial residual = 0.0113792, Final residual = 5.51634e-05, No Iterations 8
GAMG:  Solving for p, Initial residual = 0.0873782, Final residual = 0.000695163, No Iterations 5
time step continuity errors : sum local = 0.000252868, global = -3.65282e-16, cumulative = 6.48005e-16
smoothSolver:  Solving for nuTilda, Initial residual = 0.00880384, Final residual = 3.98181e-05, No Iterations 8
ExecutionTime = 2.2 s  ClockTime = 2 s

Time = 22

smoothSolver:  Solving for Ux, Initial residual = 0.013241, Final residual = 6.2395e-05, No Iterations 8
smoothSolver:  Solving for Uy, Initial residual = 0.0144532, Final residual = 7.07268e-05, No Iterations 8
GAMG:  Solving for p, Initial residual = 0.0912178, Final residual = 0.000490672, No Iterations 6
time step continuity errors : sum local = 0.000179757, global = -2.83583e-17, cumulative = 6.19647e-16
smoothSolver:  Solving for nuTilda, Initial residual = 0.00827345, Final residual = 3.77253e-05, No Iterations 8
ExecutionTime = 2.29 s  ClockTime = 2 s

Time = 23

smoothSolver:  Solving for Ux, Initial residual = 0.00578583, Final residual = 2.39696e-05, No Iterations 8
smoothSolver:  Solving for Uy, Initial residual = 0.0061962, Final residual = 2.85056e-05, No Iterations 8
GAMG:  Solving for p, Initial residual = 0.0842634, Final residual = 0.00046441, No Iterations 6
time step continuity errors : sum local = 0.000169221, global = 3.39819e-16, cumulative = 9.59466e-16
smoothSolver:  Solving for nuTilda, Initial residual = 0.0078036, Final residual = 3.58519e-05, No Iterations 8
ExecutionTime = 2.38 s  ClockTime = 3 s

Time = 24

smoothSolver:  Solving for Ux, Initial residual = 0.00903299, Final residual = 4.00067e-05, No Iterations 8
smoothSolver:  Solving for Uy, Initial residual = 0.00887948, Final residual = 4.28343e-05, No Iterations 8
GAMG:  Solving for p, Initial residual = 0.0615897, Final residual = 0.000546405, No Iterations 5
time step continuity errors : sum local = 0.000197834, global = 1.03602e-16, cumulative = 1.06307e-15
smoothSolver:  Solving for nuTilda, Initial residual = 0.00737658, Final residual = 3.41007e-05, No Iterations 8
ExecutionTime = 2.46 s  ClockTime = 3 s

Time = 25

smoothSolver:  Solving for Ux, Initial residual = 0.00876851, Final residual = 3.89527e-05, No Iterations 8
smoothSolver:  Solving for Uy, Initial residual = 0.00789099, Final residual = 3.78527e-05, No Iterations 8
GAMG:  Solving for p, Initial residual = 0.0608318, Final residual = 0.000404466, No Iterations 6
time step continuity errors : sum local = 0.000148703, global = -1.82526e-16, cumulative = 8.80541e-16
smoothSolver:  Solving for nuTilda, Initial residual = 0.00699149, Final residual = 3.24413e-05, No Iterations 8
ExecutionTime = 2.55 s  ClockTime = 3 s

forces wings output:
    sum of forces:
        pressure : (24.5411 48.4412 -1.43292e-19)
        viscous  : (0.32223 -0.187572 5.65805e-21)
        porous   : (0 0 0)
    sum of moments:
        pressure : (-2.42206 1.22706 8.0182)
        viscous  : (0.0093786 0.0161115 -0.0335979)
        porous   : (0 0 0)

Time = 26

smoothSolver:  Solving for Ux, Initial residual = 0.00526928, Final residual = 2.1234e-05, No Iterations 8
smoothSolver:  Solving for Uy, Initial residual = 0.00358505, Final residual = 1.68149e-05, No Iterations 8
GAMG:  Solving for p, Initial residual = 0.0566067, Final residual = 0.000425962, No Iterations 5
time step continuity errors : sum local = 0.000156021, global = -1.66932e-16, cumulative = 7.13609e-16
smoothSolver:  Solving for nuTilda, Initial residual = 0.00663286, Final residual = 3.08883e-05, No Iterations 8
ExecutionTime = 2.64 s  ClockTime = 3 s

Time = 27

smoothSolver:  Solving for Ux, Initial residual = 0.00659169, Final residual = 2.85669e-05, No Iterations 8
smoothSolver:  Solving for Uy, Initial residual = 0.00592103, Final residual = 2.91643e-05, No Iterations 8
GAMG:  Solving for p, Initial residual = 0.0443356, Final residual = 0.000253569, No Iterations 6
time step continuity errors : sum local = 9.272e-05, global = 3.61566e-17, cumulative = 7.49766e-16
smoothSolver:  Solving for nuTilda, Initial residual = 0.00631193, Final residual = 2.94662e-05, No Iterations 8
ExecutionTime = 2.73 s  ClockTime = 3 s

Time = 28

smoothSolver:  Solving for Ux, Initial residual = 0.00528553, Final residual = 2.28528e-05, No Iterations 8
smoothSolver:  Solving for Uy, Initial residual = 0.0052831, Final residual = 2.55939e-05, No Iterations 8
GAMG:  Solving for p, Initial residual = 0.0388942, Final residual = 0.000272139, No Iterations 6
time step continuity errors : sum local = 0.000100709, global = 4.91036e-17, cumulative = 7.98869e-16
smoothSolver:  Solving for nuTilda, Initial residual = 0.00602403, Final residual = 2.81605e-05, No Iterations 8
ExecutionTime = 2.81 s  ClockTime = 3 s

Time = 29

smoothSolver:  Solving for Ux, Initial residual = 0.00408195, Final residual = 1.68518e-05, No Iterations 8
smoothSolver:  Solving for Uy, Initial residual = 0.00377314, Final residual = 1.75796e-05, No Iterations 8
GAMG:  Solving for p, Initial residual = 0.0374305, Final residual = 0.00023824, No Iterations 5
time step continuity errors : sum local = 8.68211e-05, global = 9.51759e-17, cumulative = 8.94045e-16
smoothSolver:  Solving for nuTilda, Initial residual = 0.00575808, Final residual = 2.69481e-05, No Iterations 8
ExecutionTime = 2.9 s  ClockTime = 3 s

Time = 30

smoothSolver:  Solving for Ux, Initial residual = 0.00503126, Final residual = 2.16534e-05, No Iterations 8
smoothSolver:  Solving for Uy, Initial residual = 0.00434443, Final residual = 2.09315e-05, No Iterations 8
GAMG:  Solving for p, Initial residual = 0.0321528, Final residual = 0.000177197, No Iterations 6
time step continuity errors : sum local = 6.4314e-05, global = -6.53958e-17, cumulative = 8.28649e-16
smoothSolver:  Solving for nuTilda, Initial residual = 0.00550976, Final residual = 2.57867e-05, No Iterations 8
ExecutionTime = 2.99 s  ClockTime = 3 s

forces wings output:
    sum of forces:
        pressure : (36.3202 67.2566 -4.73361e-19)
        viscous  : (0.312886 -0.17735 1.03898e-20)
        porous   : (0 0 0)
    sum of moments:
        pressure : (-3.36283 1.81601 15.0446)
        viscous  : (0.00886749 0.0156443 -0.0309358)
        porous   : (0 0 0)

Time = 31

smoothSolver:  Solving for Ux, Initial residual = 0.00423152, Final residual = 1.7936e-05, No Iterations 8
smoothSolver:  Solving for Uy, Initial residual = 0.00303535, Final residual = 1.49874e-05, No Iterations 8
GAMG:  Solving for p, Initial residual = 0.0259801, Final residual = 0.000227853, No Iterations 5
time step continuity errors : sum local = 8.38197e-05, global = -3.25225e-17, cumulative = 7.96127e-16
smoothSolver:  Solving for nuTilda, Initial residual = 0.00528202, Final residual = 2.46983e-05, No Iterations 8
ExecutionTime = 3.08 s  ClockTime = 3 s

Time = 32

smoothSolver:  Solving for Ux, Initial residual = 0.00381246, Final residual = 1.60531e-05, No Iterations 8
smoothSolver:  Solving for Uy, Initial residual = 0.00271301, Final residual = 1.35131e-05, No Iterations 8
GAMG:  Solving for p, Initial residual = 0.0240551, Final residual = 0.000232004, No Iterations 5
time step continuity errors : sum local = 8.55231e-05, global = 7.49396e-17, cumulative = 8.71067e-16
smoothSolver:  Solving for nuTilda, Initial residual = 0.00506839, Final residual = 2.36699e-05, No Iterations 8
ExecutionTime = 3.16 s  ClockTime = 3 s

Time = 33

smoothSolver:  Solving for Ux, Initial residual = 0.00377795, Final residual = 1.62595e-05, No Iterations 8
smoothSolver:  Solving for Uy, Initial residual = 0.00312574, Final residual = 1.58957e-05, No Iterations 8
GAMG:  Solving for p, Initial residual = 0.022485, Final residual = 0.00015524, No Iterations 6
time step continuity errors : sum local = 5.70022e-05, global = 7.76364e-17, cumulative = 9.48703e-16
smoothSolver:  Solving for nuTilda, Initial residual = 0.00487163, Final residual = 2.27144e-05, No Iterations 8
ExecutionTime = 3.25 s  ClockTime = 3 s

Time = 34

smoothSolver:  Solving for Ux, Initial residual = 0.00317857, Final residual = 1.36191e-05, No Iterations 8
smoothSolver:  Solving for Uy, Initial residual = 0.00255883, Final residual = 1.31638e-05, No Iterations 8
GAMG:  Solving for p, Initial residual = 0.0189596, Final residual = 0.000129739, No Iterations 6
time step continuity errors : sum local = 4.79166e-05, global = -1.26373e-16, cumulative = 8.2233e-16
smoothSolver:  Solving for nuTilda, Initial residual = 0.00468743, Final residual = 2.18116e-05, No Iterations 8
ExecutionTime = 3.34 s  ClockTime = 3 s

Time = 35

smoothSolver:  Solving for Ux, Initial residual = 0.00321129, Final residual = 1.37995e-05, No Iterations 8
smoothSolver:  Solving for Uy, Initial residual = 0.00253719, Final residual = 1.28233e-05, No Iterations 8
GAMG:  Solving for p, Initial residual = 0.0173277, Final residual = 0.000144773, No Iterations 5
time step continuity errors : sum local = 5.35398e-05, global = 4.83459e-17, cumulative = 8.70676e-16
smoothSolver:  Solving for nuTilda, Initial residual = 0.00452167, Final residual = 2.0961e-05, No Iterations 8
ExecutionTime = 3.43 s  ClockTime = 4 s

forces wings output:
    sum of forces:
        pressure : (27.8668 54.2415 -3.63737e-19)
        viscous  : (0.300363 -0.170622 1.17895e-20)
        porous   : (0 0 0)
    sum of moments:
        pressure : (-2.71208 1.39334 9.6523)
        viscous  : (0.00853112 0.0150181 -0.0296519)
        porous   : (0 0 0)

Time = 36

smoothSolver:  Solving for Ux, Initial residual = 0.00330184, Final residual = 1.4271e-05, No Iterations 8
smoothSolver:  Solving for Uy, Initial residual = 0.00240888, Final residual = 1.22944e-05, No Iterations 8
GAMG:  Solving for p, Initial residual = 0.0168711, Final residual = 0.000162434, No Iterations 5
time step continuity errors : sum local = 5.9252e-05, global = -3.39412e-17, cumulative = 8.36735e-16
smoothSolver:  Solving for nuTilda, Initial residual = 0.0043639, Final residual = 2.01452e-05, No Iterations 8
ExecutionTime = 3.52 s  ClockTime = 4 s

Time = 37

smoothSolver:  Solving for Ux, Initial residual = 0.00310002, Final residual = 1.33624e-05, No Iterations 8
smoothSolver:  Solving for Uy, Initial residual = 0.00195007, Final residual = 1.02102e-05, No Iterations 8
GAMG:  Solving for p, Initial residual = 0.0142087, Final residual = 9.54449e-05, No Iterations 5
time step continuity errors : sum local = 3.51644e-05, global = 2.4295e-16, cumulative = 1.07968e-15
smoothSolver:  Solving for nuTilda, Initial residual = 0.00421158, Final residual = 1.9371e-05, No Iterations 8
ExecutionTime = 3.61 s  ClockTime = 4 s

Time = 38

smoothSolver:  Solving for Ux, Initial residual = 0.00302318, Final residual = 1.30792e-05, No Iterations 8
smoothSolver:  Solving for Uy, Initial residual = 0.00208146, Final residual = 1.1033e-05, No Iterations 8
GAMG:  Solving for p, Initial residual = 0.0130808, Final residual = 9.84957e-05, No Iterations 5
time step continuity errors : sum local = 3.64468e-05, global = -5.3752e-17, cumulative = 1.02593e-15
smoothSolver:  Solving for nuTilda, Initial residual = 0.00406803, Final residual = 1.86542e-05, No Iterations 8
ExecutionTime = 3.69 s  ClockTime = 4 s

Time = 39

smoothSolver:  Solving for Ux, Initial residual = 0.00287564, Final residual = 1.252e-05, No Iterations 8
smoothSolver:  Solving for Uy, Initial residual = 0.00207782, Final residual = 1.11918e-05, No Iterations 8
GAMG:  Solving for p, Initial residual = 0.0130739, Final residual = 9.38801e-05, No Iterations 5
time step continuity errors : sum local = 3.43847e-05, global = -1.20561e-16, cumulative = 9.05372e-16
smoothSolver:  Solving for nuTilda, Initial residual = 0.00393137, Final residual = 1.79706e-05, No Iterations 8
ExecutionTime = 3.78 s  ClockTime = 4 s

Time = 40

smoothSolver:  Solving for Ux, Initial residual = 0.00274368, Final residual = 1.19794e-05, No Iterations 8
smoothSolver:  Solving for Uy, Initial residual = 0.00195634, Final residual = 1.06266e-05, No Iterations 8
GAMG:  Solving for p, Initial residual = 0.0118667, Final residual = 0.000116983, No Iterations 4
time step continuity errors : sum local = 4.28341e-05, global = 4.78973e-17, cumulative = 9.53269e-16
smoothSolver:  Solving for nuTilda, Initial residual = 0.00379951, Final residual = 1.73308e-05, No Iterations 8
ExecutionTime = 3.86 s  ClockTime = 4 s

forces wings output:
    sum of forces:
        pressure : (21.32 44.2978 -2.07028e-19)
        viscous  : (0.286999 -0.164767 7.73242e-21)
        porous   : (0 0 0)
    sum of moments:
        pressure : (-2.21489 1.066 5.3789)
        viscous  : (0.00823833 0.0143499 -0.028723)
        porous   : (0 0 0)

Time = 41

smoothSolver:  Solving for Ux, Initial residual = 0.00274847, Final residual = 1.20682e-05, No Iterations 8
smoothSolver:  Solving for Uy, Initial residual = 0.00190298, Final residual = 1.03298e-05, No Iterations 8
GAMG:  Solving for p, Initial residual = 0.0113524, Final residual = 9.09187e-05, No Iterations 5
time step continuity errors : sum local = 3.36377e-05, global = 3.65665e-17, cumulative = 9.89835e-16
smoothSolver:  Solving for nuTilda, Initial residual = 0.00367235, Final residual = 1.67211e-05, No Iterations 8
ExecutionTime = 3.95 s  ClockTime = 4 s

Time = 42

smoothSolver:  Solving for Ux, Initial residual = 0.00274337, Final residual = 1.21116e-05, No Iterations 8
smoothSolver:  Solving for Uy, Initial residual = 0.00177071, Final residual = 9.69217e-06, No Iterations 8
GAMG:  Solving for p, Initial residual = 0.0108793, Final residual = 6.46287e-05, No Iterations 5
time step continuity errors : sum local = 2.34931e-05, global = -2.56161e-21, cumulative = 9.89833e-16
smoothSolver:  Solving for nuTilda, Initial residual = 0.00354841, Final residual = 1.6147e-05, No Iterations 8
ExecutionTime = 4.03 s  ClockTime = 4 s

Time = 43

smoothSolver:  Solving for Ux, Initial residual = 0.00268917, Final residual = 1.19327e-05, No Iterations 8
smoothSolver:  Solving for Uy, Initial residual = 0.00172143, Final residual = 9.46405e-06, No Iterations 8
GAMG:  Solving for p, Initial residual = 0.00989964, Final residual = 5.69681e-05, No Iterations 5
time step continuity errors : sum local = 2.09175e-05, global = -9.8988e-17, cumulative = 8.90845e-16
smoothSolver:  Solving for nuTilda, Initial residual = 0.00343097, Final residual = 1.5586e-05, No Iterations 8
ExecutionTime = 4.12 s  ClockTime = 4 s

Time = 44

smoothSolver:  Solving for Ux, Initial residual = 0.00261099, Final residual = 1.16206e-05, No Iterations 8
smoothSolver:  Solving for Uy, Initial residual = 0.00174664, Final residual = 9.67307e-06, No Iterations 8
GAMG:  Solving for p, Initial residual = 0.00940604, Final residual = 8.2025e-05, No Iterations 4
time step continuity errors : sum local = 2.9982e-05, global = 3.89726e-17, cumulative = 9.29817e-16
smoothSolver:  Solving for nuTilda, Initial residual = 0.00331807, Final residual = 1.50646e-05, No Iterations 8
ExecutionTime = 4.2 s  ClockTime = 4 s

Time = 45

smoothSolver:  Solving for Ux, Initial residual = 0.00253925, Final residual = 1.1319e-05, No Iterations 8
smoothSolver:  Solving for Uy, Initial residual = 0.00173285, Final residual = 9.7168e-06, No Iterations 8
GAMG:  Solving for p, Initial residual = 0.00920857, Final residual = 8.43389e-05, No Iterations 4
time step continuity errors : sum local = 3.08611e-05, global = -5.78375e-17, cumulative = 8.7198e-16
smoothSolver:  Solving for nuTilda, Initial residual = 0.00320724, Final residual = 1.4554e-05, No Iterations 8
ExecutionTime = 4.28 s  ClockTime = 4 s

forces wings output:
    sum of forces:
        pressure : (19.7842 42.1748 -1.3072e-19)
        viscous  : (0.273652 -0.159089 8.96112e-21)
        porous   : (0 0 0)
    sum of moments:
        pressure : (-2.10874 0.98921 4.22619)
        viscous  : (0.00795445 0.0136826 -0.027831)
        porous   : (0 0 0)

Time = 46

smoothSolver:  Solving for Ux, Initial residual = 0.0024997, Final residual = 1.11491e-05, No Iterations 8
smoothSolver:  Solving for Uy, Initial residual = 0.00171164, Final residual = 9.63454e-06, No Iterations 8
GAMG:  Solving for p, Initial residual = 0.00885319, Final residual = 7.86885e-05, No Iterations 4
time step continuity errors : sum local = 2.88571e-05, global = 1.82865e-16, cumulative = 1.05484e-15
smoothSolver:  Solving for nuTilda, Initial residual = 0.00310285, Final residual = 1.4083e-05, No Iterations 8
ExecutionTime = 4.37 s  ClockTime = 5 s

Time = 47

smoothSolver:  Solving for Ux, Initial residual = 0.0024872, Final residual = 1.11229e-05, No Iterations 8
smoothSolver:  Solving for Uy, Initial residual = 0.00166196, Final residual = 9.37934e-06, No Iterations 8
GAMG:  Solving for p, Initial residual = 0.0085384, Final residual = 7.3534e-05, No Iterations 4
time step continuity errors : sum local = 2.68693e-05, global = -1.90221e-16, cumulative = 8.64624e-16
smoothSolver:  Solving for nuTilda, Initial residual = 0.00300144, Final residual = 1.36253e-05, No Iterations 8
ExecutionTime = 4.45 s  ClockTime = 5 s

Time = 48

smoothSolver:  Solving for Ux, Initial residual = 0.00246928, Final residual = 1.10887e-05, No Iterations 8
smoothSolver:  Solving for Uy, Initial residual = 0.0016114, Final residual = 9.11065e-06, No Iterations 8
GAMG:  Solving for p, Initial residual = 0.00815463, Final residual = 6.9526e-05, No Iterations 4
time step continuity errors : sum local = 2.54227e-05, global = 2.60223e-17, cumulative = 8.90646e-16
smoothSolver:  Solving for nuTilda, Initial residual = 0.00290625, Final residual = 1.31892e-05, No Iterations 8
ExecutionTime = 4.53 s  ClockTime = 5 s

Time = 49

smoothSolver:  Solving for Ux, Initial residual = 0.00242646, Final residual = 1.09439e-05, No Iterations 8
smoothSolver:  Solving for Uy, Initial residual = 0.00159369, Final residual = 8.99704e-06, No Iterations 8
GAMG:  Solving for p, Initial residual = 0.00776521, Final residual = 5.06062e-05, No Iterations 4
time step continuity errors : sum local = 1.84224e-05, global = -9.67651e-17, cumulative = 7.93881e-16
smoothSolver:  Solving for nuTilda, Initial residual = 0.0028127, Final residual = 1.27709e-05, No Iterations 8
ExecutionTime = 4.61 s  ClockTime = 5 s

Time = 50

smoothSolver:  Solving for Ux, Initial residual = 0.00236717, Final residual = 1.07128e-05, No Iterations 8
smoothSolver:  Solving for Uy, Initial residual = 0.00159119, Final residual = 8.99628e-06, No Iterations 8
GAMG:  Solving for p, Initial residual = 0.00740098, Final residual = 4.40697e-05, No Iterations 4
time step continuity errors : sum local = 1.61535e-05, global = 4.07814e-17, cumulative = 8.34662e-16
smoothSolver:  Solving for nuTilda, Initial residual = 0.00272563, Final residual = 1.23796e-05, No Iterations 8
ExecutionTime = 4.69 s  ClockTime = 5 s

forces wings output:
    sum of forces:
        pressure : (20.7276 43.8206 -1.17057e-19)
        viscous  : (0.260529 -0.153266 7.5151e-21)
        porous   : (0 0 0)
    sum of moments:
        pressure : (-2.19103 1.03638 4.68947)
        viscous  : (0.0076633 0.0130264 -0.0268679)
        porous   : (0 0 0)

Time = 51

smoothSolver:  Solving for Ux, Initial residual = 0.0023157, Final residual = 1.05015e-05, No Iterations 8
smoothSolver:  Solving for Uy, Initial residual = 0.0015799, Final residual = 8.99762e-06, No Iterations 8
GAMG:  Solving for p, Initial residual = 0.00706511, Final residual = 4.39226e-05, No Iterations 4
time step continuity errors : sum local = 1.61092e-05, global = -1.5825e-16, cumulative = 6.76412e-16
smoothSolver:  Solving for nuTilda, Initial residual = 0.00264204, Final residual = 1.20061e-05, No Iterations 8
ExecutionTime = 4.78 s  ClockTime = 5 s

Time = 52

smoothSolver:  Solving for Ux, Initial residual = 0.00228189, Final residual = 1.03654e-05, No Iterations 8
smoothSolver:  Solving for Uy, Initial residual = 0.00155824, Final residual = 8.94466e-06, No Iterations 8
GAMG:  Solving for p, Initial residual = 0.00679215, Final residual = 4.37406e-05, No Iterations 4
time step continuity errors : sum local = 1.59677e-05, global = 5.37597e-17, cumulative = 7.30172e-16
smoothSolver:  Solving for nuTilda, Initial residual = 0.00256208, Final residual = 1.16459e-05, No Iterations 8
ExecutionTime = 4.86 s  ClockTime = 5 s

Time = 53

smoothSolver:  Solving for Ux, Initial residual = 0.00226016, Final residual = 1.02946e-05, No Iterations 8
smoothSolver:  Solving for Uy, Initial residual = 0.00153052, Final residual = 8.83294e-06, No Iterations 8
GAMG:  Solving for p, Initial residual = 0.00668129, Final residual = 4.02058e-05, No Iterations 4
time step continuity errors : sum local = 1.47036e-05, global = -6.71926e-18, cumulative = 7.23452e-16
smoothSolver:  Solving for nuTilda, Initial residual = 0.00248453, Final residual = 1.12955e-05, No Iterations 8
ExecutionTime = 4.94 s  ClockTime = 5 s

Time = 54

smoothSolver:  Solving for Ux, Initial residual = 0.00223693, Final residual = 1.02299e-05, No Iterations 8
smoothSolver:  Solving for Uy, Initial residual = 0.00150318, Final residual = 8.70225e-06, No Iterations 8
GAMG:  Solving for p, Initial residual = 0.00654315, Final residual = 3.75529e-05, No Iterations 4
time step continuity errors : sum local = 1.37307e-05, global = 1.32957e-16, cumulative = 8.5641e-16
smoothSolver:  Solving for nuTilda, Initial residual = 0.0024108, Final residual = 1.09602e-05, No Iterations 8
ExecutionTime = 5.03 s  ClockTime = 5 s

Time = 55

smoothSolver:  Solving for Ux, Initial residual = 0.00220133, Final residual = 1.01124e-05, No Iterations 8
smoothSolver:  Solving for Uy, Initial residual = 0.00148713, Final residual = 8.61667e-06, No Iterations 8
GAMG:  Solving for p, Initial residual = 0.00638229, Final residual = 4.13287e-05, No Iterations 4
time step continuity errors : sum local = 1.5102e-05, global = 1.04194e-16, cumulative = 9.60603e-16
smoothSolver:  Solving for nuTilda, Initial residual = 0.00233939, Final residual = 1.06375e-05, No Iterations 8
ExecutionTime = 5.11 s  ClockTime = 5 s

forces wings output:
    sum of forces:
        pressure : (21.1233 44.6264 -1.05028e-19)
        viscous  : (0.247815 -0.147548 8.10256e-21)
        porous   : (0 0 0)
    sum of moments:
        pressure : (-2.23132 1.05617 4.8011)
        viscous  : (0.00737742 0.0123907 -0.0259139)
        porous   : (0 0 0)

Time = 56

smoothSolver:  Solving for Ux, Initial residual = 0.00216245, Final residual = 9.97766e-06, No Iterations 8
smoothSolver:  Solving for Uy, Initial residual = 0.00147956, Final residual = 8.58087e-06, No Iterations 8
GAMG:  Solving for p, Initial residual = 0.00621899, Final residual = 3.40248e-05, No Iterations 4
time step continuity errors : sum local = 1.24371e-05, global = 1.70318e-16, cumulative = 1.13092e-15
smoothSolver:  Solving for nuTilda, Initial residual = 0.00227151, Final residual = 1.03303e-05, No Iterations 8
ExecutionTime = 5.19 s  ClockTime = 5 s

Time = 57

smoothSolver:  Solving for Ux, Initial residual = 0.00212785, Final residual = 9.85165e-06, No Iterations 8
smoothSolver:  Solving for Uy, Initial residual = 0.00147286, Final residual = 8.56335e-06, No Iterations 8
GAMG:  Solving for p, Initial residual = 0.00604686, Final residual = 3.09721e-05, No Iterations 4
time step continuity errors : sum local = 1.13484e-05, global = 2.20953e-16, cumulative = 1.35188e-15
smoothSolver:  Solving for nuTilda, Initial residual = 0.00220698, Final residual = 1.00355e-05, No Iterations 8
ExecutionTime = 5.28 s  ClockTime = 5 s

Time = 58

smoothSolver:  Solving for Ux, Initial residual = 0.00210014, Final residual = 9.74934e-06, No Iterations 8
smoothSolver:  Solving for Uy, Initial residual = 0.0014592, Final residual = 8.52473e-06, No Iterations 8
GAMG:  Solving for p, Initial residual = 0.00591629, Final residual = 3.12171e-05, No Iterations 4
time step continuity errors : sum local = 1.14521e-05, global = 1.33137e-16, cumulative = 1.48501e-15
smoothSolver:  Solving for nuTilda, Initial residual = 0.00214648, Final residual = 9.7532e-06, No Iterations 8
ExecutionTime = 5.36 s  ClockTime = 6 s

Time = 59

smoothSolver:  Solving for Ux, Initial residual = 0.00207633, Final residual = 9.66727e-06, No Iterations 8
smoothSolver:  Solving for Uy, Initial residual = 0.0014422, Final residual = 8.46352e-06, No Iterations 8
GAMG:  Solving for p, Initial residual = 0.00580137, Final residual = 3.40068e-05, No Iterations 4
time step continuity errors : sum local = 1.24738e-05, global = -1.42178e-16, cumulative = 1.34283e-15
smoothSolver:  Solving for nuTilda, Initial residual = 0.00208873, Final residual = 9.4781e-06, No Iterations 8
ExecutionTime = 5.44 s  ClockTime = 6 s

Time = 60

smoothSolver:  Solving for Ux, Initial residual = 0.00205355, Final residual = 9.59286e-06, No Iterations 8
smoothSolver:  Solving for Uy, Initial residual = 0.00142719, Final residual = 8.40003e-06, No Iterations 8
GAMG:  Solving for p, Initial residual = 0.00571744, Final residual = 3.35584e-05, No Iterations 4
time step continuity errors : sum local = 1.22905e-05, global = -1.14991e-16, cumulative = 1.22784e-15
smoothSolver:  Solving for nuTilda, Initial residual = 0.0020318, Final residual = 9.21123e-06, No Iterations 8
ExecutionTime = 5.52 s  ClockTime = 6 s

forces wings output:
    sum of forces:
        pressure : (21.2742 45.1394 -8.2779e-20)
        viscous  : (0.235449 -0.141889 7.85007e-21)
        porous   : (0 0 0)
    sum of moments:
        pressure : (-2.25697 1.06371 4.69624)
        viscous  : (0.00709447 0.0117725 -0.0249631)
        porous   : (0 0 0)

Time = 61

smoothSolver:  Solving for Ux, Initial residual = 0.00203116, Final residual = 9.51959e-06, No Iterations 8
smoothSolver:  Solving for Uy, Initial residual = 0.00141664, Final residual = 8.35268e-06, No Iterations 8
GAMG:  Solving for p, Initial residual = 0.00563506, Final residual = 3.22401e-05, No Iterations 4
time step continuity errors : sum local = 1.18197e-05, global = -7.81194e-17, cumulative = 1.14972e-15
smoothSolver:  Solving for nuTilda, Initial residual = 0.00197659, Final residual = 8.95262e-06, No Iterations 8
ExecutionTime = 5.61 s  ClockTime = 6 s

Time = 62

smoothSolver:  Solving for Ux, Initial residual = 0.00200898, Final residual = 9.44143e-06, No Iterations 8
smoothSolver:  Solving for Uy, Initial residual = 0.00140928, Final residual = 8.3214e-06, No Iterations 8
GAMG:  Solving for p, Initial residual = 0.00553408, Final residual = 3.19642e-05, No Iterations 4
time step continuity errors : sum local = 1.17217e-05, global = -1.01376e-16, cumulative = 1.04835e-15
smoothSolver:  Solving for nuTilda, Initial residual = 0.00192356, Final residual = 8.70393e-06, No Iterations 8
ExecutionTime = 5.69 s  ClockTime = 6 s

Time = 63

smoothSolver:  Solving for Ux, Initial residual = 0.00198719, Final residual = 9.36112e-06, No Iterations 8
smoothSolver:  Solving for Uy, Initial residual = 0.00140213, Final residual = 8.29581e-06, No Iterations 8
GAMG:  Solving for p, Initial residual = 0.00542683, Final residual = 2.84262e-05, No Iterations 4
time step continuity errors : sum local = 1.04315e-05, global = -6.47681e-17, cumulative = 9.83579e-16
smoothSolver:  Solving for nuTilda, Initial residual = 0.00187131, Final residual = 8.46639e-06, No Iterations 8
ExecutionTime = 5.77 s  ClockTime = 6 s

Time = 64

smoothSolver:  Solving for Ux, Initial residual = 0.00196643, Final residual = 9.28554e-06, No Iterations 8
smoothSolver:  Solving for Uy, Initial residual = 0.00139284, Final residual = 8.26367e-06, No Iterations 8
GAMG:  Solving for p, Initial residual = 0.00532712, Final residual = 2.5726e-05, No Iterations 4
time step continuity errors : sum local = 9.47245e-06, global = -5.22393e-18, cumulative = 9.78355e-16
smoothSolver:  Solving for nuTilda, Initial residual = 0.00182155, Final residual = 8.24148e-06, No Iterations 8
ExecutionTime = 5.85 s  ClockTime = 6 s

Time = 65

smoothSolver:  Solving for Ux, Initial residual = 0.00194586, Final residual = 9.20991e-06, No Iterations 8
smoothSolver:  Solving for Uy, Initial residual = 0.00138271, Final residual = 8.2257e-06, No Iterations 8
GAMG:  Solving for p, Initial residual = 0.00523396, Final residual = 2.75701e-05, No Iterations 4
time step continuity errors : sum local = 1.01373e-05, global = 1.19815e-16, cumulative = 1.09817e-15
smoothSolver:  Solving for nuTilda, Initial residual = 0.00177622, Final residual = 8.02095e-06, No Iterations 8
ExecutionTime = 5.94 s  ClockTime = 6 s

forces wings output:
    sum of forces:
        pressure : (21.675 46.03 -6.55526e-20)
        viscous  : (0.223451 -0.136361 7.86041e-21)
        porous   : (0 0 0)
    sum of moments:
        pressure : (-2.3015 1.08375 4.75586)
        viscous  : (0.00681805 0.0111725 -0.0240343)
        porous   : (0 0 0)

Time = 66

smoothSolver:  Solving for Ux, Initial residual = 0.00192563, Final residual = 9.13544e-06, No Iterations 8
smoothSolver:  Solving for Uy, Initial residual = 0.00137352, Final residual = 8.18626e-06, No Iterations 8
GAMG:  Solving for p, Initial residual = 0.00514935, Final residual = 2.82883e-05, No Iterations 4
time step continuity errors : sum local = 1.04014e-05, global = 1.26498e-17, cumulative = 1.11082e-15
smoothSolver:  Solving for nuTilda, Initial residual = 0.00173136, Final residual = 7.81091e-06, No Iterations 8
ExecutionTime = 6.02 s  ClockTime = 6 s

Time = 67

smoothSolver:  Solving for Ux, Initial residual = 0.00190685, Final residual = 9.0658e-06, No Iterations 8
smoothSolver:  Solving for Uy, Initial residual = 0.00136514, Final residual = 8.14794e-06, No Iterations 8
GAMG:  Solving for p, Initial residual = 0.00506642, Final residual = 2.756e-05, No Iterations 4
time step continuity errors : sum local = 1.01603e-05, global = -1.09429e-16, cumulative = 1.00139e-15
smoothSolver:  Solving for nuTilda, Initial residual = 0.00169014, Final residual = 7.60313e-06, No Iterations 8
ExecutionTime = 6.11 s  ClockTime = 6 s

Time = 68

smoothSolver:  Solving for Ux, Initial residual = 0.00188906, Final residual = 8.99877e-06, No Iterations 8
smoothSolver:  Solving for Uy, Initial residual = 0.00135707, Final residual = 8.11125e-06, No Iterations 8
GAMG:  Solving for p, Initial residual = 0.00498366, Final residual = 2.78537e-05, No Iterations 4
time step continuity errors : sum local = 1.0256e-05, global = 3.21986e-17, cumulative = 1.03359e-15
smoothSolver:  Solving for nuTilda, Initial residual = 0.00164819, Final residual = 7.4069e-06, No Iterations 8
ExecutionTime = 6.19 s  ClockTime = 6 s

Time = 69

smoothSolver:  Solving for Ux, Initial residual = 0.00187139, Final residual = 8.93134e-06, No Iterations 8
smoothSolver:  Solving for Uy, Initial residual = 0.00134914, Final residual = 8.0766e-06, No Iterations 8
GAMG:  Solving for p, Initial residual = 0.00490056, Final residual = 2.83608e-05, No Iterations 4
time step continuity errors : sum local = 1.04422e-05, global = -9.00531e-17, cumulative = 9.43537e-16
smoothSolver:  Solving for nuTilda, Initial residual = 0.0016069, Final residual = 7.21791e-06, No Iterations 8
ExecutionTime = 6.27 s  ClockTime = 6 s

Time = 70

smoothSolver:  Solving for Ux, Initial residual = 0.0018537, Final residual = 8.86407e-06, No Iterations 8
smoothSolver:  Solving for Uy, Initial residual = 0.00134091, Final residual = 8.04103e-06, No Iterations 8
GAMG:  Solving for p, Initial residual = 0.00481698, Final residual = 2.77201e-05, No Iterations 4
time step continuity errors : sum local = 1.02195e-05, global = 4.54988e-17, cumulative = 9.89036e-16
smoothSolver:  Solving for nuTilda, Initial residual = 0.00156783, Final residual = 7.0364e-06, No Iterations 8
ExecutionTime = 6.35 s  ClockTime = 6 s

forces wings output:
    sum of forces:
        pressure : (22.1212 46.968 -4.86957e-20)
        viscous  : (0.211866 -0.130971 7.56663e-21)
        porous   : (0 0 0)
    sum of moments:
        pressure : (-2.3484 1.10606 4.86062)
        viscous  : (0.00654855 0.0105933 -0.0231274)
        porous   : (0 0 0)

Time = 71

smoothSolver:  Solving for Ux, Initial residual = 0.00183666, Final residual = 8.79979e-06, No Iterations 8
smoothSolver:  Solving for Uy, Initial residual = 0.00133193, Final residual = 8.00152e-06, No Iterations 8
GAMG:  Solving for p, Initial residual = 0.00473337, Final residual = 2.76726e-05, No Iterations 4
time step continuity errors : sum local = 1.02081e-05, global = -1.1893e-17, cumulative = 9.77143e-16
smoothSolver:  Solving for nuTilda, Initial residual = 0.00152919, Final residual = 6.85988e-06, No Iterations 8
ExecutionTime = 6.44 s  ClockTime = 7 s

Time = 72

smoothSolver:  Solving for Ux, Initial residual = 0.00181933, Final residual = 8.73268e-06, No Iterations 8
smoothSolver:  Solving for Uy, Initial residual = 0.00132363, Final residual = 7.96254e-06, No Iterations 8
GAMG:  Solving for p, Initial residual = 0.00465703, Final residual = 2.95653e-05, No Iterations 4
time step continuity errors : sum local = 1.09017e-05, global = 2.29011e-16, cumulative = 1.20615e-15
smoothSolver:  Solving for nuTilda, Initial residual = 0.00149117, Final residual = 6.68766e-06, No Iterations 8
ExecutionTime = 6.52 s  ClockTime = 7 s

Time = 73

smoothSolver:  Solving for Ux, Initial residual = 0.00180177, Final residual = 8.66292e-06, No Iterations 8
smoothSolver:  Solving for Uy, Initial residual = 0.00131644, Final residual = 7.92633e-06, No Iterations 8
GAMG:  Solving for p, Initial residual = 0.00458136, Final residual = 2.95645e-05, No Iterations 4
time step continuity errors : sum local = 1.09125e-05, global = 6.38534e-17, cumulative = 1.27001e-15
smoothSolver:  Solving for nuTilda, Initial residual = 0.00145456, Final residual = 6.52101e-06, No Iterations 8
ExecutionTime = 6.6 s  ClockTime = 7 s

Time = 74

smoothSolver:  Solving for Ux, Initial residual = 0.00178566, Final residual = 8.59959e-06, No Iterations 8
smoothSolver:  Solving for Uy, Initial residual = 0.00130863, Final residual = 7.8868e-06, No Iterations 8
GAMG:  Solving for p, Initial residual = 0.00450838, Final residual = 3.07515e-05, No Iterations 4
time step continuity errors : sum local = 1.13551e-05, global = -1.04861e-16, cumulative = 1.16515e-15
smoothSolver:  Solving for nuTilda, Initial residual = 0.00141935, Final residual = 6.36044e-06, No Iterations 8
ExecutionTime = 6.68 s  ClockTime = 7 s

Time = 75

smoothSolver:  Solving for Ux, Initial residual = 0.00177032, Final residual = 8.53893e-06, No Iterations 8
smoothSolver:  Solving for Uy, Initial residual = 0.00130063, Final residual = 7.84633e-06, No Iterations 8
GAMG:  Solving for p, Initial residual = 0.00443571, Final residual = 3.21748e-05, No Iterations 4
time step continuity errors : sum local = 1.18862e-05, global = -2.206e-16, cumulative = 9.44545e-16
smoothSolver:  Solving for nuTilda, Initial residual = 0.0013851, Final residual = 6.20578e-06, No Iterations 8
ExecutionTime = 6.76 s  ClockTime = 7 s

forces wings output:
    sum of forces:
        pressure : (22.4947 47.788 -3.08437e-20)
        viscous  : (0.200686 -0.1257 7.27907e-21)
        porous   : (0 0 0)
    sum of moments:
        pressure : (-2.3894 1.12474 4.92342)
        viscous  : (0.00628502 0.0100343 -0.0222464)
        porous   : (0 0 0)

Time = 76

smoothSolver:  Solving for Ux, Initial residual = 0.00175469, Final residual = 8.47646e-06, No Iterations 8
smoothSolver:  Solving for Uy, Initial residual = 0.00129294, Final residual = 7.80736e-06, No Iterations 8
GAMG:  Solving for p, Initial residual = 0.00436856, Final residual = 3.18376e-05, No Iterations 4
time step continuity errors : sum local = 1.1767e-05, global = 2.44492e-16, cumulative = 1.18904e-15
smoothSolver:  Solving for nuTilda, Initial residual = 0.00135249, Final residual = 6.0578e-06, No Iterations 8
ExecutionTime = 6.85 s  ClockTime = 7 s

Time = 77

smoothSolver:  Solving for Ux, Initial residual = 0.00173974, Final residual = 8.41745e-06, No Iterations 8
smoothSolver:  Solving for Uy, Initial residual = 0.0012845, Final residual = 7.7648e-06, No Iterations 8
GAMG:  Solving for p, Initial residual = 0.00430484, Final residual = 3.2256e-05, No Iterations 4
time step continuity errors : sum local = 1.19381e-05, global = 9.28482e-17, cumulative = 1.28189e-15
smoothSolver:  Solving for nuTilda, Initial residual = 0.00131997, Final residual = 5.91131e-06, No Iterations 8
ExecutionTime = 6.93 s  ClockTime = 7 s

Time = 78

smoothSolver:  Solving for Ux, Initial residual = 0.00172452, Final residual = 8.35639e-06, No Iterations 8
smoothSolver:  Solving for Uy, Initial residual = 0.00127656, Final residual = 7.72348e-06, No Iterations 8
GAMG:  Solving for p, Initial residual = 0.00424169, Final residual = 3.19631e-05, No Iterations 4
time step continuity errors : sum local = 1.18565e-05, global = 1.94534e-16, cumulative = 1.47642e-15
smoothSolver:  Solving for nuTilda, Initial residual = 0.00128923, Final residual = 5.77083e-06, No Iterations 8
ExecutionTime = 7.01 s  ClockTime = 7 s

Time = 79

smoothSolver:  Solving for Ux, Initial residual = 0.00170994, Final residual = 8.29821e-06, No Iterations 8
smoothSolver:  Solving for Uy, Initial residual = 0.00126821, Final residual = 7.6799e-06, No Iterations 8
GAMG:  Solving for p, Initial residual = 0.00417958, Final residual = 3.18723e-05, No Iterations 4
time step continuity errors : sum local = 1.18165e-05, global = 1.07476e-16, cumulative = 1.58389e-15
smoothSolver:  Solving for nuTilda, Initial residual = 0.00125892, Final residual = 5.63258e-06, No Iterations 8
ExecutionTime = 7.1 s  ClockTime = 7 s

Time = 80

smoothSolver:  Solving for Ux, Initial residual = 0.00169522, Final residual = 8.23874e-06, No Iterations 8
smoothSolver:  Solving for Uy, Initial residual = 0.00126057, Final residual = 7.63885e-06, No Iterations 8
GAMG:  Solving for p, Initial residual = 0.00411775, Final residual = 3.25783e-05, No Iterations 4
time step continuity errors : sum local = 1.20715e-05, global = 2.61721e-16, cumulative = 1.84562e-15
smoothSolver:  Solving for nuTilda, Initial residual = 0.00123205, Final residual = 5.49984e-06, No Iterations 8
ExecutionTime = 7.18 s  ClockTime = 7 s

forces wings output:
    sum of forces:
        pressure : (22.9001 48.6743 -1.14303e-20)
        viscous  : (0.189913 -0.120568 7.19059e-21)
        porous   : (0 0 0)
    sum of moments:
        pressure : (-2.43372 1.145 4.99413)
        viscous  : (0.00602841 0.00949567 -0.0213887)
        porous   : (0 0 0)

Time = 81

smoothSolver:  Solving for Ux, Initial residual = 0.00168129, Final residual = 8.18279e-06, No Iterations 8
smoothSolver:  Solving for Uy, Initial residual = 0.00125234, Final residual = 7.595e-06, No Iterations 8
GAMG:  Solving for p, Initial residual = 0.0040569, Final residual = 3.26577e-05, No Iterations 4
time step continuity errors : sum local = 1.2104e-05, global = -2.09206e-16, cumulative = 1.63641e-15
smoothSolver:  Solving for nuTilda, Initial residual = 0.0012045, Final residual = 5.36818e-06, No Iterations 8
ExecutionTime = 7.27 s  ClockTime = 7 s

Time = 82

smoothSolver:  Solving for Ux, Initial residual = 0.00166756, Final residual = 8.12646e-06, No Iterations 8
smoothSolver:  Solving for Uy, Initial residual = 0.0012443, Final residual = 7.55161e-06, No Iterations 8
GAMG:  Solving for p, Initial residual = 0.00399952, Final residual = 3.30912e-05, No Iterations 4
time step continuity errors : sum local = 1.22795e-05, global = -3.8315e-17, cumulative = 1.59809e-15
smoothSolver:  Solving for nuTilda, Initial residual = 0.00117856, Final residual = 5.2404e-06, No Iterations 8
ExecutionTime = 7.35 s  ClockTime = 7 s

Time = 83

smoothSolver:  Solving for Ux, Initial residual = 0.00165338, Final residual = 8.06685e-06, No Iterations 8
smoothSolver:  Solving for Uy, Initial residual = 0.00123706, Final residual = 7.51125e-06, No Iterations 8
GAMG:  Solving for p, Initial residual = 0.00394216, Final residual = 3.22049e-05, No Iterations 4
time step continuity errors : sum local = 1.19653e-05, global = 8.41852e-17, cumulative = 1.68228e-15
smoothSolver:  Solving for nuTilda, Initial residual = 0.00115446, Final residual = 5.11721e-06, No Iterations 8
ExecutionTime = 7.43 s  ClockTime = 8 s

Time = 84

smoothSolver:  Solving for Ux, Initial residual = 0.00164022, Final residual = 8.0134e-06, No Iterations 8
smoothSolver:  Solving for Uy, Initial residual = 0.0012285, Final residual = 7.46474e-06, No Iterations 8
GAMG:  Solving for p, Initial residual = 0.00388938, Final residual = 3.25008e-05, No Iterations 4
time step continuity errors : sum local = 1.20868e-05, global = 3.68199e-17, cumulative = 1.7191e-15
smoothSolver:  Solving for nuTilda, Initial residual = 0.00113087, Final residual = 4.99848e-06, No Iterations 8
ExecutionTime = 7.51 s  ClockTime = 8 s

Time = 85

smoothSolver:  Solving for Ux, Initial residual = 0.00162729, Final residual = 7.96064e-06, No Iterations 8
smoothSolver:  Solving for Uy, Initial residual = 0.00121989, Final residual = 7.41734e-06, No Iterations 8
GAMG:  Solving for p, Initial residual = 0.00383697, Final residual = 3.45228e-05, No Iterations 4
time step continuity errors : sum local = 1.28392e-05, global = -6.90332e-17, cumulative = 1.65007e-15
smoothSolver:  Solving for nuTilda, Initial residual = 0.0011073, Final residual = 4.88415e-06, No Iterations 8
ExecutionTime = 7.59 s  ClockTime = 8 s

forces wings output:
    sum of forces:
        pressure : (23.2997 49.5422 6.54871e-21)
        viscous  : (0.179589 -0.115596 7.09445e-21)
        porous   : (0 0 0)
    sum of moments:
        pressure : (-2.47711 1.16499 5.068)
        viscous  : (0.00577982 0.00897944 -0.0205555)
        porous   : (0 0 0)

Time = 86

smoothSolver:  Solving for Ux, Initial residual = 0.00161376, Final residual = 7.90312e-06, No Iterations 8
smoothSolver:  Solving for Uy, Initial residual = 0.00121243, Final residual = 7.37459e-06, No Iterations 8
GAMG:  Solving for p, Initial residual = 0.00378223, Final residual = 3.22937e-05, No Iterations 4
time step continuity errors : sum local = 1.20268e-05, global = -1.98768e-16, cumulative = 1.4513e-15
smoothSolver:  Solving for nuTilda, Initial residual = 0.00108315, Final residual = 4.77359e-06, No Iterations 8
ExecutionTime = 7.68 s  ClockTime = 8 s

Time = 87

smoothSolver:  Solving for Ux, Initial residual = 0.00160104, Final residual = 7.85027e-06, No Iterations 8
smoothSolver:  Solving for Uy, Initial residual = 0.00120385, Final residual = 7.32678e-06, No Iterations 8
GAMG:  Solving for p, Initial residual = 0.003728, Final residual = 3.37442e-05, No Iterations 4
time step continuity errors : sum local = 1.25694e-05, global = 1.7847e-17, cumulative = 1.46915e-15
smoothSolver:  Solving for nuTilda, Initial residual = 0.00105989, Final residual = 4.67011e-06, No Iterations 8
ExecutionTime = 7.76 s  ClockTime = 8 s

Time = 88

smoothSolver:  Solving for Ux, Initial residual = 0.00158807, Final residual = 7.79523e-06, No Iterations 8
smoothSolver:  Solving for Uy, Initial residual = 0.00119605, Final residual = 7.28227e-06, No Iterations 8
GAMG:  Solving for p, Initial residual = 0.0036759, Final residual = 3.12927e-05, No Iterations 4
time step continuity errors : sum local = 1.16983e-05, global = 6.82433e-18, cumulative = 1.47597e-15
smoothSolver:  Solving for nuTilda, Initial residual = 0.00103774, Final residual = 4.57139e-06, No Iterations 8
ExecutionTime = 7.84 s  ClockTime = 8 s

Time = 89

smoothSolver:  Solving for Ux, Initial residual = 0.00157587, Final residual = 7.74426e-06, No Iterations 8
smoothSolver:  Solving for Uy, Initial residual = 0.0011873, Final residual = 7.23307e-06, No Iterations 8
GAMG:  Solving for p, Initial residual = 0.00362521, Final residual = 3.09112e-05, No Iterations 4
time step continuity errors : sum local = 1.15469e-05, global = 7.12469e-17, cumulative = 1.54722e-15
smoothSolver:  Solving for nuTilda, Initial residual = 0.00101466, Final residual = 4.47651e-06, No Iterations 8
ExecutionTime = 7.93 s  ClockTime = 8 s

Time = 90

smoothSolver:  Solving for Ux, Initial residual = 0.0015634, Final residual = 7.69154e-06, No Iterations 8
smoothSolver:  Solving for Uy, Initial residual = 0.00117925, Final residual = 7.18682e-06, No Iterations 8
GAMG:  Solving for p, Initial residual = 0.00357728, Final residual = 3.04856e-05, No Iterations 4
time step continuity errors : sum local = 1.13963e-05, global = 5.07998e-17, cumulative = 1.59802e-15
smoothSolver:  Solving for nuTilda, Initial residual = 0.000992582, Final residual = 4.38553e-06, No Iterations 8
ExecutionTime = 8.01 s  ClockTime = 8 s

forces wings output:
    sum of forces:
        pressure : (23.7093 50.4331 2.50981e-20)
        viscous  : (0.169715 -0.110781 6.46589e-21)
        porous   : (0 0 0)
    sum of moments:
        pressure : (-2.52165 1.18547 5.14284)
        viscous  : (0.00553906 0.00848575 -0.0197501)
        porous   : (0 0 0)

Time = 91

smoothSolver:  Solving for Ux, Initial residual = 0.001551, Final residual = 7.63912e-06, No Iterations 8
smoothSolver:  Solving for Uy, Initial residual = 0.00117124, Final residual = 7.14081e-06, No Iterations 8
GAMG:  Solving for p, Initial residual = 0.00353416, Final residual = 2.99579e-05, No Iterations 4
time step continuity errors : sum local = 1.12187e-05, global = 1.3881e-16, cumulative = 1.73683e-15
smoothSolver:  Solving for nuTilda, Initial residual = 0.00097128, Final residual = 4.29836e-06, No Iterations 8
ExecutionTime = 8.09 s  ClockTime = 8 s

Time = 92

smoothSolver:  Solving for Ux, Initial residual = 0.00153887, Final residual = 7.58785e-06, No Iterations 8
smoothSolver:  Solving for Uy, Initial residual = 0.00116302, Final residual = 7.09373e-06, No Iterations 8
GAMG:  Solving for p, Initial residual = 0.00349398, Final residual = 2.99175e-05, No Iterations 4
time step continuity errors : sum local = 1.12205e-05, global = 1.04284e-16, cumulative = 1.84111e-15
smoothSolver:  Solving for nuTilda, Initial residual = 0.000950982, Final residual = 4.21479e-06, No Iterations 8
ExecutionTime = 8.18 s  ClockTime = 8 s

Time = 93

smoothSolver:  Solving for Ux, Initial residual = 0.00152696, Final residual = 7.53695e-06, No Iterations 8
smoothSolver:  Solving for Uy, Initial residual = 0.0011548, Final residual = 7.04654e-06, No Iterations 8
GAMG:  Solving for p, Initial residual = 0.00345494, Final residual = 2.97908e-05, No Iterations 4
time step continuity errors : sum local = 1.11792e-05, global = -9.79615e-18, cumulative = 1.83132e-15
smoothSolver:  Solving for nuTilda, Initial residual = 0.000931554, Final residual = 4.134e-06, No Iterations 8
ExecutionTime = 8.26 s  ClockTime = 8 s

Time = 94

smoothSolver:  Solving for Ux, Initial residual = 0.00151497, Final residual = 7.48541e-06, No Iterations 8
smoothSolver:  Solving for Uy, Initial residual = 0.00114697, Final residual = 7.00101e-06, No Iterations 8
GAMG:  Solving for p, Initial residual = 0.00341665, Final residual = 2.98502e-05, No Iterations 4
time step continuity errors : sum local = 1.12043e-05, global = 7.70826e-17, cumulative = 1.9084e-15
smoothSolver:  Solving for nuTilda, Initial residual = 0.000912887, Final residual = 4.05524e-06, No Iterations 8
ExecutionTime = 8.34 s  ClockTime = 8 s

Time = 95

smoothSolver:  Solving for Ux, Initial residual = 0.00150298, Final residual = 7.43391e-06, No Iterations 8
smoothSolver:  Solving for Uy, Initial residual = 0.00113936, Final residual = 6.9563e-06, No Iterations 8
GAMG:  Solving for p, Initial residual = 0.00337946, Final residual = 2.99358e-05, No Iterations 4
time step continuity errors : sum local = 1.12426e-05, global = 2.0737e-17, cumulative = 1.92914e-15
smoothSolver:  Solving for nuTilda, Initial residual = 0.000895029, Final residual = 3.9791e-06, No Iterations 8
ExecutionTime = 8.42 s  ClockTime = 9 s

forces wings output:
    sum of forces:
        pressure : (24.0986 51.2763 4.35742e-20)
        viscous  : (0.160389 -0.106213 5.50626e-21)
        porous   : (0 0 0)
    sum of moments:
        pressure : (-2.56382 1.20493 5.21643)
        viscous  : (0.00531065 0.00801945 -0.0189783)
        porous   : (0 0 0)

Time = 96

smoothSolver:  Solving for Ux, Initial residual = 0.00149123, Final residual = 7.38354e-06, No Iterations 8
smoothSolver:  Solving for Uy, Initial residual = 0.00113157, Final residual = 6.91067e-06, No Iterations 8
GAMG:  Solving for p, Initial residual = 0.00334285, Final residual = 2.98229e-05, No Iterations 4
time step continuity errors : sum local = 1.12095e-05, global = 1.51134e-16, cumulative = 2.08027e-15
smoothSolver:  Solving for nuTilda, Initial residual = 0.000878149, Final residual = 3.90606e-06, No Iterations 8
ExecutionTime = 8.51 s  ClockTime = 9 s

Time = 97

smoothSolver:  Solving for Ux, Initial residual = 0.00147978, Final residual = 7.33441e-06, No Iterations 8
smoothSolver:  Solving for Uy, Initial residual = 0.0011236, Final residual = 6.8638e-06, No Iterations 8
GAMG:  Solving for p, Initial residual = 0.00330748, Final residual = 2.95809e-05, No Iterations 4
time step continuity errors : sum local = 1.11279e-05, global = 2.77981e-16, cumulative = 2.35825e-15
smoothSolver:  Solving for nuTilda, Initial residual = 0.000861977, Final residual = 3.8359e-06, No Iterations 8
ExecutionTime = 8.59 s  ClockTime = 9 s

Time = 98

smoothSolver:  Solving for Ux, Initial residual = 0.00146846, Final residual = 7.2857e-06, No Iterations 8
smoothSolver:  Solving for Uy, Initial residual = 0.00111555, Final residual = 6.81669e-06, No Iterations 8
GAMG:  Solving for p, Initial residual = 0.00327332, Final residual = 2.92666e-05, No Iterations 4
time step continuity errors : sum local = 1.10182e-05, global = -1.10312e-17, cumulative = 2.34722e-15
smoothSolver:  Solving for nuTilda, Initial residual = 0.000846424, Final residual = 3.76782e-06, No Iterations 8
ExecutionTime = 8.67 s  ClockTime = 9 s

Time = 99

smoothSolver:  Solving for Ux, Initial residual = 0.00145708, Final residual = 7.23684e-06, No Iterations 8
smoothSolver:  Solving for Uy, Initial residual = 0.00110767, Final residual = 6.77029e-06, No Iterations 8
GAMG:  Solving for p, Initial residual = 0.00324075, Final residual = 2.90588e-05, No Iterations 4
time step continuity errors : sum local = 1.09472e-05, global = 2.01811e-16, cumulative = 2.54903e-15
smoothSolver:  Solving for nuTilda, Initial residual = 0.000831328, Final residual = 3.70167e-06, No Iterations 8
ExecutionTime = 8.75 s  ClockTime = 9 s

Time = 100

smoothSolver:  Solving for Ux, Initial residual = 0.00144569, Final residual = 7.1878e-06, No Iterations 8
smoothSolver:  Solving for Uy, Initial residual = 0.0011, Final residual = 6.72483e-06, No Iterations 8
GAMG:  Solving for p, Initial residual = 0.00320977, Final residual = 2.89079e-05, No Iterations 4
time step continuity errors : sum local = 1.08979e-05, global = 2.72341e-17, cumulative = 2.57626e-15
smoothSolver:  Solving for nuTilda, Initial residual = 0.000816634, Final residual = 3.63739e-06, No Iterations 8
ExecutionTime = 8.84 s  ClockTime = 9 s

forces wings output:
    sum of forces:
        pressure : (24.4807 52.1018 6.1776e-20)
        viscous  : (0.151672 -0.101959 4.94252e-21)
        porous   : (0 0 0)
    sum of moments:
        pressure : (-2.60509 1.22404 5.29028)
        viscous  : (0.00509794 0.00758362 -0.0182555)
        porous   : (0 0 0)

Time = 101

smoothSolver:  Solving for Ux, Initial residual = 0.00143437, Final residual = 7.13921e-06, No Iterations 8
smoothSolver:  Solving for Uy, Initial residual = 0.00109246, Final residual = 6.67985e-06, No Iterations 8
GAMG:  Solving for p, Initial residual = 0.00318098, Final residual = 2.88486e-05, No Iterations 4
time step continuity errors : sum local = 1.08832e-05, global = 9.79376e-17, cumulative = 2.6742e-15
smoothSolver:  Solving for nuTilda, Initial residual = 0.000802344, Final residual = 3.5751e-06, No Iterations 8
ExecutionTime = 8.92 s  ClockTime = 9 s

Time = 102

smoothSolver:  Solving for Ux, Initial residual = 0.00142315, Final residual = 7.09107e-06, No Iterations 8
smoothSolver:  Solving for Uy, Initial residual = 0.00108491, Final residual = 6.63476e-06, No Iterations 8
GAMG:  Solving for p, Initial residual = 0.00315256, Final residual = 2.87054e-05, No Iterations 4
time step continuity errors : sum local = 1.08373e-05, global = 2.56847e-16, cumulative = 2.93105e-15
smoothSolver:  Solving for nuTilda, Initial residual = 0.000788597, Final residual = 3.51405e-06, No Iterations 8
ExecutionTime = 9 s  ClockTime = 9 s

Time = 103

smoothSolver:  Solving for Ux, Initial residual = 0.00141206, Final residual = 7.04341e-06, No Iterations 8
smoothSolver:  Solving for Uy, Initial residual = 0.00107732, Final residual = 6.58937e-06, No Iterations 8
GAMG:  Solving for p, Initial residual = 0.00312389, Final residual = 2.85307e-05, No Iterations 4
time step continuity errors : sum local = 1.07797e-05, global = 4.92104e-17, cumulative = 2.98026e-15
smoothSolver:  Solving for nuTilda, Initial residual = 0.000775176, Final residual = 3.45435e-06, No Iterations 8
ExecutionTime = 9.08 s  ClockTime = 9 s

Time = 104

smoothSolver:  Solving for Ux, Initial residual = 0.00140112, Final residual = 6.99603e-06, No Iterations 8
smoothSolver:  Solving for Uy, Initial residual = 0.00106971, Final residual = 6.54375e-06, No Iterations 8
GAMG:  Solving for p, Initial residual = 0.00309506, Final residual = 2.82743e-05, No Iterations 4
time step continuity errors : sum local = 1.06912e-05, global = 1.89006e-16, cumulative = 3.16926e-15
smoothSolver:  Solving for nuTilda, Initial residual = 0.000762012, Final residual = 3.39658e-06, No Iterations 8
ExecutionTime = 9.17 s  ClockTime = 9 s

Time = 105

smoothSolver:  Solving for Ux, Initial residual = 0.00139021, Final residual = 6.94869e-06, No Iterations 8
smoothSolver:  Solving for Uy, Initial residual = 0.0010622, Final residual = 6.49846e-06, No Iterations 8
GAMG:  Solving for p, Initial residual = 0.00306631, Final residual = 2.80656e-05, No Iterations 4
time step continuity errors : sum local = 1.0621e-05, global = -3.45285e-16, cumulative = 2.82398e-15
smoothSolver:  Solving for nuTilda, Initial residual = 0.000749198, Final residual = 3.34056e-06, No Iterations 8
ExecutionTime = 9.25 s  ClockTime = 9 s

forces wings output:
    sum of forces:
        pressure : (24.8423 52.8812 7.9217e-20)
        viscous  : (0.143493 -0.09798 4.53069e-21)
        porous   : (0 0 0)
    sum of moments:
        pressure : (-2.64406 1.24211 5.36125)
        viscous  : (0.004899 0.00717464 -0.017581)
        porous   : (0 0 0)

Time = 106

smoothSolver:  Solving for Ux, Initial residual = 0.00137929, Final residual = 6.90167e-06, No Iterations 8
smoothSolver:  Solving for Uy, Initial residual = 0.00105474, Final residual = 6.45354e-06, No Iterations 8
GAMG:  Solving for p, Initial residual = 0.00303888, Final residual = 2.78713e-05, No Iterations 4
time step continuity errors : sum local = 1.05564e-05, global = 1.81463e-16, cumulative = 3.00544e-15
smoothSolver:  Solving for nuTilda, Initial residual = 0.000736777, Final residual = 3.28617e-06, No Iterations 8
ExecutionTime = 9.34 s  ClockTime = 9 s

Time = 107

smoothSolver:  Solving for Ux, Initial residual = 0.00136839, Final residual = 6.85481e-06, No Iterations 8
smoothSolver:  Solving for Uy, Initial residual = 0.00104739, Final residual = 6.40897e-06, No Iterations 8
GAMG:  Solving for p, Initial residual = 0.0030118, Final residual = 2.77295e-05, No Iterations 4
time step continuity errors : sum local = 1.05113e-05, global = -1.26048e-17, cumulative = 2.99284e-15
smoothSolver:  Solving for nuTilda, Initial residual = 0.000724672, Final residual = 3.23325e-06, No Iterations 8
ExecutionTime = 9.42 s  ClockTime = 10 s

Time = 108

smoothSolver:  Solving for Ux, Initial residual = 0.00135757, Final residual = 6.80819e-06, No Iterations 8
smoothSolver:  Solving for Uy, Initial residual = 0.00104007, Final residual = 6.36464e-06, No Iterations 8
GAMG:  Solving for p, Initial residual = 0.00298602, Final residual = 2.75527e-05, No Iterations 4
time step continuity errors : sum local = 1.04526e-05, global = -1.24307e-16, cumulative = 2.86853e-15
smoothSolver:  Solving for nuTilda, Initial residual = 0.000712964, Final residual = 3.18152e-06, No Iterations 8
ExecutionTime = 9.5 s  ClockTime = 10 s

Time = 109

smoothSolver:  Solving for Ux, Initial residual = 0.00134685, Final residual = 6.76182e-06, No Iterations 8
smoothSolver:  Solving for Uy, Initial residual = 0.00103277, Final residual = 6.32037e-06, No Iterations 8
GAMG:  Solving for p, Initial residual = 0.00295994, Final residual = 2.73311e-05, No Iterations 4
time step continuity errors : sum local = 1.03768e-05, global = 2.39632e-17, cumulative = 2.89249e-15
smoothSolver:  Solving for nuTilda, Initial residual = 0.000701656, Final residual = 3.13067e-06, No Iterations 8
ExecutionTime = 9.58 s  ClockTime = 10 s

Time = 110

smoothSolver:  Solving for Ux, Initial residual = 0.0013362, Final residual = 6.7158e-06, No Iterations 8
smoothSolver:  Solving for Uy, Initial residual = 0.00102548, Final residual = 6.27622e-06, No Iterations 8
GAMG:  Solving for p, Initial residual = 0.00293381, Final residual = 2.70424e-05, No Iterations 4
time step continuity errors : sum local = 1.02757e-05, global = 5.00741e-17, cumulative = 2.94257e-15
smoothSolver:  Solving for nuTilda, Initial residual = 0.000690599, Final residual = 3.0804e-06, No Iterations 8
ExecutionTime = 9.66 s  ClockTime = 10 s

forces wings output:
    sum of forces:
        pressure : (25.1798 53.6116 9.57091e-20)
        viscous  : (0.135687 -0.0941902 2.14207e-21)
        porous   : (0 0 0)
    sum of moments:
        pressure : (-2.68058 1.25899 5.42564)
        viscous  : (0.00470951 0.00678435 -0.0169384)
        porous   : (0 0 0)

Time = 111

smoothSolver:  Solving for Ux, Initial residual = 0.00132557, Final residual = 6.67019e-06, No Iterations 8
smoothSolver:  Solving for Uy, Initial residual = 0.00101825, Final residual = 6.23217e-06, No Iterations 8
GAMG:  Solving for p, Initial residual = 0.00290801, Final residual = 2.67263e-05, No Iterations 4
time step continuity errors : sum local = 1.01643e-05, global = -6.0084e-17, cumulative = 2.88248e-15
smoothSolver:  Solving for nuTilda, Initial residual = 0.000679818, Final residual = 3.03077e-06, No Iterations 8
ExecutionTime = 9.75 s  ClockTime = 10 s

Time = 112

smoothSolver:  Solving for Ux, Initial residual = 0.00131503, Final residual = 6.62491e-06, No Iterations 8
smoothSolver:  Solving for Uy, Initial residual = 0.0010111, Final residual = 6.18851e-06, No Iterations 8
GAMG:  Solving for p, Initial residual = 0.00288297, Final residual = 2.64343e-05, No Iterations 4
time step continuity errors : sum local = 1.00621e-05, global = 9.55216e-18, cumulative = 2.89204e-15
smoothSolver:  Solving for nuTilda, Initial residual = 0.000669192, Final residual = 2.98238e-06, No Iterations 8
ExecutionTime = 9.83 s  ClockTime = 10 s

Time = 113

smoothSolver:  Solving for Ux, Initial residual = 0.00130454, Final residual = 6.57974e-06, No Iterations 8
smoothSolver:  Solving for Uy, Initial residual = 0.00100403, Final residual = 6.14537e-06, No Iterations 8
GAMG:  Solving for p, Initial residual = 0.0028575, Final residual = 2.49995e-05, No Iterations 4
time step continuity errors : sum local = 9.5378e-06, global = 5.87243e-17, cumulative = 2.95076e-15
smoothSolver:  Solving for nuTilda, Initial residual = 0.000658166, Final residual = 2.9356e-06, No Iterations 8
ExecutionTime = 9.92 s  ClockTime = 10 s

Time = 114

smoothSolver:  Solving for Ux, Initial residual = 0.00129427, Final residual = 6.53614e-06, No Iterations 8
smoothSolver:  Solving for Uy, Initial residual = 0.000996512, Final residual = 6.10046e-06, No Iterations 8
GAMG:  Solving for p, Initial residual = 0.00283256, Final residual = 2.43789e-05, No Iterations 4
time step continuity errors : sum local = 9.32943e-06, global = -4.5538e-17, cumulative = 2.90522e-15
smoothSolver:  Solving for nuTilda, Initial residual = 0.000647202, Final residual = 2.89041e-06, No Iterations 8
ExecutionTime = 10 s  ClockTime = 10 s

Time = 115

smoothSolver:  Solving for Ux, Initial residual = 0.00128382, Final residual = 6.49117e-06, No Iterations 8
smoothSolver:  Solving for Uy, Initial residual = 0.00098969, Final residual = 6.05865e-06, No Iterations 8
GAMG:  Solving for p, Initial residual = 0.00280487, Final residual = 2.38918e-05, No Iterations 4
time step continuity errors : sum local = 9.11963e-06, global = -1.17043e-18, cumulative = 2.90405e-15
smoothSolver:  Solving for nuTilda, Initial residual = 0.000636916, Final residual = 2.84616e-06, No Iterations 8
ExecutionTime = 10.08 s  ClockTime = 10 s

forces wings output:
    sum of forces:
        pressure : (25.4896 54.2861 1.11188e-19)
        viscous  : (0.128186 -0.0905467 6.70851e-22)
        porous   : (0 0 0)
    sum of moments:
        pressure : (-2.7143 1.27448 5.48173)
        viscous  : (0.00452734 0.0064093 -0.0163197)
        porous   : (0 0 0)

Time = 116

smoothSolver:  Solving for Ux, Initial residual = 0.00127324, Final residual = 6.44628e-06, No Iterations 8
smoothSolver:  Solving for Uy, Initial residual = 0.000983215, Final residual = 6.01856e-06, No Iterations 8
GAMG:  Solving for p, Initial residual = 0.00277684, Final residual = 2.4055e-05, No Iterations 4
time step continuity errors : sum local = 9.20446e-06, global = -1.40724e-17, cumulative = 2.88998e-15
smoothSolver:  Solving for nuTilda, Initial residual = 0.000627119, Final residual = 2.80284e-06, No Iterations 8
ExecutionTime = 10.17 s  ClockTime = 10 s

Time = 117

smoothSolver:  Solving for Ux, Initial residual = 0.00126277, Final residual = 6.40165e-06, No Iterations 8
smoothSolver:  Solving for Uy, Initial residual = 0.000976719, Final residual = 5.97839e-06, No Iterations 8
GAMG:  Solving for p, Initial residual = 0.00274905, Final residual = 2.52249e-05, No Iterations 4
time step continuity errors : sum local = 9.65325e-06, global = -1.82106e-16, cumulative = 2.70787e-15
smoothSolver:  Solving for nuTilda, Initial residual = 0.000617648, Final residual = 2.76049e-06, No Iterations 8
ExecutionTime = 10.25 s  ClockTime = 10 s

Time = 118

smoothSolver:  Solving for Ux, Initial residual = 0.00125298, Final residual = 6.36045e-06, No Iterations 8
smoothSolver:  Solving for Uy, Initial residual = 0.000968823, Final residual = 5.93172e-06, No Iterations 8
GAMG:  Solving for p, Initial residual = 0.00272153, Final residual = 2.28294e-05, No Iterations 4
time step continuity errors : sum local = 8.74316e-06, global = -2.84695e-16, cumulative = 2.42318e-15
smoothSolver:  Solving for nuTilda, Initial residual = 0.000608347, Final residual = 2.71937e-06, No Iterations 8
ExecutionTime = 10.33 s  ClockTime = 10 s

Time = 119

smoothSolver:  Solving for Ux, Initial residual = 0.00124256, Final residual = 6.31658e-06, No Iterations 8
smoothSolver:  Solving for Uy, Initial residual = 0.000962507, Final residual = 5.8921e-06, No Iterations 8
GAMG:  Solving for p, Initial residual = 0.00269183, Final residual = 2.28387e-05, No Iterations 4
time step continuity errors : sum local = 8.76794e-06, global = 7.52845e-17, cumulative = 2.49846e-15
smoothSolver:  Solving for nuTilda, Initial residual = 0.000599135, Final residual = 2.67988e-06, No Iterations 8
ExecutionTime = 10.41 s  ClockTime = 11 s

Time = 120

smoothSolver:  Solving for Ux, Initial residual = 0.00123211, Final residual = 6.27226e-06, No Iterations 8
smoothSolver:  Solving for Uy, Initial residual = 0.000956346, Final residual = 5.85352e-06, No Iterations 8
GAMG:  Solving for p, Initial residual = 0.00266147, Final residual = 2.41299e-05, No Iterations 4
time step continuity errors : sum local = 9.24903e-06, global = -3.01645e-16, cumulative = 2.19682e-15
smoothSolver:  Solving for nuTilda, Initial residual = 0.000590273, Final residual = 2.64174e-06, No Iterations 8
ExecutionTime = 10.49 s  ClockTime = 11 s

forces wings output:
    sum of forces:
        pressure : (25.7638 54.8895 1.25314e-19)
        viscous  : (0.120995 -0.0870569 -4.44615e-21)
        porous   : (0 0 0)
    sum of moments:
        pressure : (-2.74447 1.28819 5.52676)
        viscous  : (0.00435285 0.00604975 -0.0157256)
        porous   : (0 0 0)

Time = 121

smoothSolver:  Solving for Ux, Initial residual = 0.00122181, Final residual = 6.22889e-06, No Iterations 8
smoothSolver:  Solving for Uy, Initial residual = 0.000950007, Final residual = 5.81437e-06, No Iterations 8
GAMG:  Solving for p, Initial residual = 0.00263174, Final residual = 2.20437e-05, No Iterations 4
time step continuity errors : sum local = 8.45971e-06, global = 1.38402e-17, cumulative = 2.21066e-15
smoothSolver:  Solving for nuTilda, Initial residual = 0.000581592, Final residual = 2.60531e-06, No Iterations 8
ExecutionTime = 10.58 s  ClockTime = 11 s

Time = 122

smoothSolver:  Solving for Ux, Initial residual = 0.00121202, Final residual = 6.18838e-06, No Iterations 8
smoothSolver:  Solving for Uy, Initial residual = 0.0009426, Final residual = 5.77071e-06, No Iterations 8
GAMG:  Solving for p, Initial residual = 0.00260246, Final residual = 2.29196e-05, No Iterations 4
time step continuity errors : sum local = 8.80332e-06, global = 9.39216e-17, cumulative = 2.30458e-15
[...]

forces wings output:
    sum of forces:
        pressure : (17.0933 31.8819 -5.5785e-19)
        viscous  : (0.0489615 -0.0346945 2.96058e-20)
        porous   : (0 0 0)
    sum of moments:
        pressure : (-1.59409 0.854666 6.91633)
        viscous  : (0.00173473 0.00244808 -0.00705239)
        porous   : (0 0 0)

Time = 4971

smoothSolver:  Solving for Ux, Initial residual = 7.0542e-09, Final residual = 7.0542e-09, No Iterations 0
smoothSolver:  Solving for Uy, Initial residual = 2.68402e-08, Final residual = 7.09506e-09, No Iterations 2
GAMG:  Solving for p, Initial residual = 1.06102e-06, Final residual = 2.94981e-07, No Iterations 1
time step continuity errors : sum local = 1.16681e-07, global = 9.04673e-17, cumulative = 6.91364e-14
smoothSolver:  Solving for nuTilda, Initial residual = 1.0023e-08, Final residual = 1.39952e-09, No Iterations 2
ExecutionTime = 362.58 s  ClockTime = 363 s

Time = 4972

smoothSolver:  Solving for Ux, Initial residual = 1.63922e-08, Final residual = 4.03672e-09, No Iterations 2
smoothSolver:  Solving for Uy, Initial residual = 5.93736e-08, Final residual = 3.64283e-09, No Iterations 4
GAMG:  Solving for p, Initial residual = 1.87443e-06, Final residual = 2.73224e-07, No Iterations 1
time step continuity errors : sum local = 1.07804e-07, global = 2.83668e-16, cumulative = 6.94201e-14
smoothSolver:  Solving for nuTilda, Initial residual = 1.46873e-08, Final residual = 1.22793e-09, No Iterations 2
ExecutionTime = 362.64 s  ClockTime = 363 s

Time = 4973

smoothSolver:  Solving for Ux, Initial residual = 1.67866e-08, Final residual = 4.1543e-09, No Iterations 2
smoothSolver:  Solving for Uy, Initial residual = 6.11624e-08, Final residual = 3.97457e-09, No Iterations 4
GAMG:  Solving for p, Initial residual = 2.26654e-06, Final residual = 3.14729e-07, No Iterations 1
time step continuity errors : sum local = 1.24203e-07, global = 6.59024e-17, cumulative = 6.9486e-14
smoothSolver:  Solving for nuTilda, Initial residual = 9.3402e-09, Final residual = 9.3402e-09, No Iterations 0
ExecutionTime = 362.71 s  ClockTime = 363 s

Time = 4974

smoothSolver:  Solving for Ux, Initial residual = 1.40662e-08, Final residual = 3.31692e-09, No Iterations 2
smoothSolver:  Solving for Uy, Initial residual = 5.33575e-08, Final residual = 3.67017e-09, No Iterations 4
GAMG:  Solving for p, Initial residual = 1.0886e-06, Final residual = 2.49541e-07, No Iterations 1
time step continuity errors : sum local = 9.85593e-08, global = 1.57644e-16, cumulative = 6.96436e-14
smoothSolver:  Solving for nuTilda, Initial residual = 9.44324e-09, Final residual = 9.44324e-09, No Iterations 0
ExecutionTime = 362.77 s  ClockTime = 363 s

Time = 4975

smoothSolver:  Solving for Ux, Initial residual = 1.00827e-08, Final residual = 2.524e-09, No Iterations 2
smoothSolver:  Solving for Uy, Initial residual = 4.02546e-08, Final residual = 2.78312e-09, No Iterations 4
GAMG:  Solving for p, Initial residual = 1.52381e-06, Final residual = 2.97393e-07, No Iterations 1
time step continuity errors : sum local = 1.17442e-07, global = 2.10979e-16, cumulative = 6.98546e-14
smoothSolver:  Solving for nuTilda, Initial residual = 9.56964e-09, Final residual = 9.56964e-09, No Iterations 0
ExecutionTime = 362.84 s  ClockTime = 363 s

forces wings output:
    sum of forces:
        pressure : (17.0934 31.882 -5.57853e-19)
        viscous  : (0.0489513 -0.0346899 2.96058e-20)
        porous   : (0 0 0)
    sum of moments:
        pressure : (-1.5941 0.854669 6.91636)
        viscous  : (0.0017345 0.00244756 -0.00705176)
        porous   : (0 0 0)

Time = 4976

smoothSolver:  Solving for Ux, Initial residual = 9.13453e-09, Final residual = 9.13453e-09, No Iterations 0
smoothSolver:  Solving for Uy, Initial residual = 3.79618e-08, Final residual = 9.78745e-09, No Iterations 2
GAMG:  Solving for p, Initial residual = 1.85496e-06, Final residual = 2.71964e-07, No Iterations 1
time step continuity errors : sum local = 1.07346e-07, global = -7.9643e-17, cumulative = 6.9775e-14
smoothSolver:  Solving for nuTilda, Initial residual = 9.64896e-09, Final residual = 9.64896e-09, No Iterations 0
ExecutionTime = 362.9 s  ClockTime = 363 s

Time = 4977

smoothSolver:  Solving for Ux, Initial residual = 1.01435e-08, Final residual = 2.70201e-09, No Iterations 2
smoothSolver:  Solving for Uy, Initial residual = 3.97632e-08, Final residual = 2.98936e-09, No Iterations 4
GAMG:  Solving for p, Initial residual = 7.67356e-07, Final residual = 7.67356e-07, No Iterations 0
time step continuity errors : sum local = 3.02788e-07, global = 2.34112e-17, cumulative = 6.97984e-14
smoothSolver:  Solving for nuTilda, Initial residual = 9.81889e-09, Final residual = 9.81889e-09, No Iterations 0
ExecutionTime = 362.96 s  ClockTime = 363 s

Time = 4978

smoothSolver:  Solving for Ux, Initial residual = 9.19999e-09, Final residual = 9.19999e-09, No Iterations 0
smoothSolver:  Solving for Uy, Initial residual = 3.71993e-08, Final residual = 2.87093e-09, No Iterations 4
GAMG:  Solving for p, Initial residual = 9.91423e-07, Final residual = 9.91423e-07, No Iterations 0
time step continuity errors : sum local = 3.91193e-07, global = 2.83919e-17, cumulative = 6.98268e-14
smoothSolver:  Solving for nuTilda, Initial residual = 9.93725e-09, Final residual = 9.93725e-09, No Iterations 0
ExecutionTime = 363.02 s  ClockTime = 363 s

Time = 4979

smoothSolver:  Solving for Ux, Initial residual = 8.9097e-09, Final residual = 8.9097e-09, No Iterations 0
smoothSolver:  Solving for Uy, Initial residual = 3.51128e-08, Final residual = 9.68634e-09, No Iterations 2
GAMG:  Solving for p, Initial residual = 1.07885e-06, Final residual = 3.47169e-07, No Iterations 1
time step continuity errors : sum local = 1.37113e-07, global = 2.43705e-16, cumulative = 7.00705e-14
smoothSolver:  Solving for nuTilda, Initial residual = 9.99432e-09, Final residual = 9.99432e-09, No Iterations 0
ExecutionTime = 363.08 s  ClockTime = 363 s

Time = 4980

smoothSolver:  Solving for Ux, Initial residual = 7.31929e-09, Final residual = 7.31929e-09, No Iterations 0
smoothSolver:  Solving for Uy, Initial residual = 2.63619e-08, Final residual = 6.74034e-09, No Iterations 2
GAMG:  Solving for p, Initial residual = 7.03906e-07, Final residual = 7.03906e-07, No Iterations 0
time step continuity errors : sum local = 2.77748e-07, global = 2.00946e-16, cumulative = 7.02714e-14
smoothSolver:  Solving for nuTilda, Initial residual = 1.01116e-08, Final residual = 1.43489e-09, No Iterations 2
ExecutionTime = 363.15 s  ClockTime = 363 s

forces wings output:
    sum of forces:
        pressure : (17.0934 31.882 -5.57851e-19)
        viscous  : (0.0489609 -0.0346947 2.96058e-20)
        porous   : (0 0 0)
    sum of moments:
        pressure : (-1.5941 0.854669 6.91636)
        viscous  : (0.00173473 0.00244805 -0.00705243)
        porous   : (0 0 0)

Time = 4981

smoothSolver:  Solving for Ux, Initial residual = 1.43773e-08, Final residual = 3.58197e-09, No Iterations 2
smoothSolver:  Solving for Uy, Initial residual = 4.54482e-08, Final residual = 3.02627e-09, No Iterations 4
GAMG:  Solving for p, Initial residual = 1.89248e-06, Final residual = 3.38806e-07, No Iterations 1
time step continuity errors : sum local = 1.33827e-07, global = 2.49403e-16, cumulative = 7.05208e-14
smoothSolver:  Solving for nuTilda, Initial residual = 1.47975e-08, Final residual = 1.25841e-09, No Iterations 2
ExecutionTime = 363.22 s  ClockTime = 363 s

Time = 4982

smoothSolver:  Solving for Ux, Initial residual = 1.51271e-08, Final residual = 3.77668e-09, No Iterations 2
smoothSolver:  Solving for Uy, Initial residual = 5.52102e-08, Final residual = 3.70704e-09, No Iterations 4
GAMG:  Solving for p, Initial residual = 2.18997e-06, Final residual = 3.10598e-07, No Iterations 1
time step continuity errors : sum local = 1.22615e-07, global = -1.19523e-16, cumulative = 7.04013e-14
smoothSolver:  Solving for nuTilda, Initial residual = 9.51461e-09, Final residual = 9.51461e-09, No Iterations 0
ExecutionTime = 363.28 s  ClockTime = 363 s

Time = 4983

smoothSolver:  Solving for Ux, Initial residual = 1.5204e-08, Final residual = 3.61594e-09, No Iterations 2
smoothSolver:  Solving for Uy, Initial residual = 6.14427e-08, Final residual = 4.28432e-09, No Iterations 4
GAMG:  Solving for p, Initial residual = 8.71294e-07, Final residual = 8.71294e-07, No Iterations 0
time step continuity errors : sum local = 3.43832e-07, global = -1.98556e-16, cumulative = 7.02027e-14
smoothSolver:  Solving for nuTilda, Initial residual = 9.64734e-09, Final residual = 9.64734e-09, No Iterations 0
ExecutionTime = 363.35 s  ClockTime = 364 s

Time = 4984

smoothSolver:  Solving for Ux, Initial residual = 1.17913e-08, Final residual = 3.03633e-09, No Iterations 2
smoothSolver:  Solving for Uy, Initial residual = 5.11392e-08, Final residual = 3.81861e-09, No Iterations 4
GAMG:  Solving for p, Initial residual = 1.8847e-06, Final residual = 3.96196e-07, No Iterations 1
time step continuity errors : sum local = 1.56452e-07, global = -3.18719e-17, cumulative = 7.01709e-14
smoothSolver:  Solving for nuTilda, Initial residual = 9.76587e-09, Final residual = 9.76587e-09, No Iterations 0
ExecutionTime = 363.41 s  ClockTime = 364 s

Time = 4985

smoothSolver:  Solving for Ux, Initial residual = 7.50006e-09, Final residual = 7.50006e-09, No Iterations 0
smoothSolver:  Solving for Uy, Initial residual = 3.02829e-08, Final residual = 7.89998e-09, No Iterations 2
GAMG:  Solving for p, Initial residual = 2.11612e-06, Final residual = 3.48246e-07, No Iterations 1
time step continuity errors : sum local = 1.3758e-07, global = 1.1177e-16, cumulative = 7.02826e-14
smoothSolver:  Solving for nuTilda, Initial residual = 9.84679e-09, Final residual = 9.84679e-09, No Iterations 0
ExecutionTime = 363.47 s  ClockTime = 364 s

forces wings output:
    sum of forces:
        pressure : (17.0934 31.882 -5.57853e-19)
        viscous  : (0.0489535 -0.0346918 2.96058e-20)
        porous   : (0 0 0)
    sum of moments:
        pressure : (-1.5941 0.854669 6.91636)
        viscous  : (0.00173459 0.00244768 -0.00705205)
        porous   : (0 0 0)

Time = 4986

smoothSolver:  Solving for Ux, Initial residual = 9.56745e-09, Final residual = 9.56745e-09, No Iterations 0
smoothSolver:  Solving for Uy, Initial residual = 4.35391e-08, Final residual = 3.14451e-09, No Iterations 4
GAMG:  Solving for p, Initial residual = 1.61028e-06, Final residual = 2.45961e-07, No Iterations 1
time step continuity errors : sum local = 9.72425e-08, global = -1.94033e-17, cumulative = 7.02632e-14
smoothSolver:  Solving for nuTilda, Initial residual = 9.92522e-09, Final residual = 9.92522e-09, No Iterations 0
ExecutionTime = 363.53 s  ClockTime = 364 s

Time = 4987

smoothSolver:  Solving for Ux, Initial residual = 1.11875e-08, Final residual = 3.01164e-09, No Iterations 2
smoothSolver:  Solving for Uy, Initial residual = 4.55647e-08, Final residual = 3.48236e-09, No Iterations 4
GAMG:  Solving for p, Initial residual = 7.42803e-07, Final residual = 7.42803e-07, No Iterations 0
time step continuity errors : sum local = 2.93168e-07, global = -8.31353e-17, cumulative = 7.01801e-14
smoothSolver:  Solving for nuTilda, Initial residual = 1.00768e-08, Final residual = 1.45118e-09, No Iterations 2
ExecutionTime = 363.6 s  ClockTime = 364 s

Time = 4988

smoothSolver:  Solving for Ux, Initial residual = 1.66839e-08, Final residual = 4.14137e-09, No Iterations 2
smoothSolver:  Solving for Uy, Initial residual = 6.21406e-08, Final residual = 4.50566e-09, No Iterations 4
GAMG:  Solving for p, Initial residual = 2.61698e-06, Final residual = 4.66474e-07, No Iterations 1
time step continuity errors : sum local = 1.84114e-07, global = 1.80975e-16, cumulative = 7.03611e-14
smoothSolver:  Solving for nuTilda, Initial residual = 1.48427e-08, Final residual = 1.28992e-09, No Iterations 2
ExecutionTime = 363.66 s  ClockTime = 364 s

Time = 4989

smoothSolver:  Solving for Ux, Initial residual = 1.3073e-08, Final residual = 3.25795e-09, No Iterations 2
smoothSolver:  Solving for Uy, Initial residual = 3.93031e-08, Final residual = 9.73599e-09, No Iterations 2
GAMG:  Solving for p, Initial residual = 2.11453e-06, Final residual = 4.16068e-07, No Iterations 1
time step continuity errors : sum local = 1.6416e-07, global = 2.04914e-16, cumulative = 7.0566e-14
smoothSolver:  Solving for nuTilda, Initial residual = 9.581e-09, Final residual = 9.581e-09, No Iterations 0
ExecutionTime = 363.72 s  ClockTime = 364 s

Time = 4990

smoothSolver:  Solving for Ux, Initial residual = 1.55051e-08, Final residual = 3.74556e-09, No Iterations 2
smoothSolver:  Solving for Uy, Initial residual = 6.14385e-08, Final residual = 4.12718e-09, No Iterations 4
GAMG:  Solving for p, Initial residual = 6.45889e-07, Final residual = 6.45889e-07, No Iterations 0
time step continuity errors : sum local = 2.5488e-07, global = 2.042e-16, cumulative = 7.07702e-14
smoothSolver:  Solving for nuTilda, Initial residual = 9.68079e-09, Final residual = 9.68079e-09, No Iterations 0
ExecutionTime = 363.78 s  ClockTime = 364 s

forces wings output:
    sum of forces:
        pressure : (17.0934 31.8819 -5.57848e-19)
        viscous  : (0.0489432 -0.0346859 2.96052e-20)
        porous   : (0 0 0)
    sum of moments:
        pressure : (-1.5941 0.854668 6.91635)
        viscous  : (0.00173429 0.00244716 -0.00705113)
        porous   : (0 0 0)

Time = 4991

smoothSolver:  Solving for Ux, Initial residual = 1.20136e-08, Final residual = 3.13296e-09, No Iterations 2
smoothSolver:  Solving for Uy, Initial residual = 5.1163e-08, Final residual = 3.68493e-09, No Iterations 4
GAMG:  Solving for p, Initial residual = 1.5267e-06, Final residual = 3.0372e-07, No Iterations 1
time step continuity errors : sum local = 1.19873e-07, global = 1.8688e-16, cumulative = 7.09571e-14
smoothSolver:  Solving for nuTilda, Initial residual = 9.80195e-09, Final residual = 9.80195e-09, No Iterations 0
ExecutionTime = 363.85 s  ClockTime = 364 s

Time = 4992

smoothSolver:  Solving for Ux, Initial residual = 8.1511e-09, Final residual = 8.1511e-09, No Iterations 0
smoothSolver:  Solving for Uy, Initial residual = 3.18052e-08, Final residual = 8.61376e-09, No Iterations 2
GAMG:  Solving for p, Initial residual = 1.91634e-06, Final residual = 3.08424e-07, No Iterations 1
time step continuity errors : sum local = 1.21726e-07, global = 1.06141e-16, cumulative = 7.10632e-14
smoothSolver:  Solving for nuTilda, Initial residual = 9.88886e-09, Final residual = 9.88886e-09, No Iterations 0
ExecutionTime = 363.91 s  ClockTime = 364 s

Time = 4993

smoothSolver:  Solving for Ux, Initial residual = 8.20328e-09, Final residual = 8.20328e-09, No Iterations 0
smoothSolver:  Solving for Uy, Initial residual = 2.95015e-08, Final residual = 7.46107e-09, No Iterations 2
GAMG:  Solving for p, Initial residual = 1.36993e-06, Final residual = 2.3087e-07, No Iterations 1
time step continuity errors : sum local = 9.11136e-08, global = -8.1544e-17, cumulative = 7.09817e-14
smoothSolver:  Solving for nuTilda, Initial residual = 9.98049e-09, Final residual = 9.98049e-09, No Iterations 0
ExecutionTime = 363.97 s  ClockTime = 364 s

Time = 4994

smoothSolver:  Solving for Ux, Initial residual = 9.30907e-09, Final residual = 9.30907e-09, No Iterations 0
smoothSolver:  Solving for Uy, Initial residual = 3.52957e-08, Final residual = 9.14228e-09, No Iterations 2
GAMG:  Solving for p, Initial residual = 7.56485e-07, Final residual = 7.56485e-07, No Iterations 0
time step continuity errors : sum local = 2.98512e-07, global = -5.36172e-17, cumulative = 7.09281e-14
smoothSolver:  Solving for nuTilda, Initial residual = 1.01038e-08, Final residual = 1.49099e-09, No Iterations 2
ExecutionTime = 364.03 s  ClockTime = 364 s

Time = 4995

smoothSolver:  Solving for Ux, Initial residual = 1.4911e-08, Final residual = 3.65022e-09, No Iterations 2
smoothSolver:  Solving for Uy, Initial residual = 5.2598e-08, Final residual = 3.61705e-09, No Iterations 4
GAMG:  Solving for p, Initial residual = 2.10143e-06, Final residual = 3.14879e-07, No Iterations 1
time step continuity errors : sum local = 1.24268e-07, global = -1.1085e-16, cumulative = 7.08172e-14
smoothSolver:  Solving for nuTilda, Initial residual = 1.49809e-08, Final residual = 1.35007e-09, No Iterations 2
ExecutionTime = 364.09 s  ClockTime = 364 s

forces wings output:
    sum of forces:
        pressure : (17.0934 31.8819 -5.57852e-19)
        viscous  : (0.0489443 -0.0346854 2.95993e-20)
        porous   : (0 0 0)
    sum of moments:
        pressure : (-1.5941 0.854668 6.91634)
        viscous  : (0.00173427 0.00244721 -0.00705107)
        porous   : (0 0 0)

Time = 4996

smoothSolver:  Solving for Ux, Initial residual = 1.32292e-08, Final residual = 3.28772e-09, No Iterations 2
smoothSolver:  Solving for Uy, Initial residual = 3.88149e-08, Final residual = 9.96249e-09, No Iterations 2
GAMG:  Solving for p, Initial residual = 2.01119e-06, Final residual = 3.15948e-07, No Iterations 1
time step continuity errors : sum local = 1.24773e-07, global = 2.01089e-16, cumulative = 7.10183e-14
smoothSolver:  Solving for nuTilda, Initial residual = 9.81526e-09, Final residual = 9.81526e-09, No Iterations 0
ExecutionTime = 364.17 s  ClockTime = 364 s

Time = 4997

smoothSolver:  Solving for Ux, Initial residual = 1.30477e-08, Final residual = 3.10831e-09, No Iterations 2
smoothSolver:  Solving for Uy, Initial residual = 4.65272e-08, Final residual = 2.8835e-09, No Iterations 4
GAMG:  Solving for p, Initial residual = 5.92346e-07, Final residual = 5.92346e-07, No Iterations 0
time step continuity errors : sum local = 2.33731e-07, global = -1.04672e-17, cumulative = 7.10078e-14
smoothSolver:  Solving for nuTilda, Initial residual = 9.9667e-09, Final residual = 9.9667e-09, No Iterations 0
ExecutionTime = 364.23 s  ClockTime = 364 s

Time = 4998

smoothSolver:  Solving for Ux, Initial residual = 9.72574e-09, Final residual = 9.72574e-09, No Iterations 0
smoothSolver:  Solving for Uy, Initial residual = 3.67243e-08, Final residual = 9.33382e-09, No Iterations 2
GAMG:  Solving for p, Initial residual = 2.20642e-06, Final residual = 2.36443e-07, No Iterations 1
time step continuity errors : sum local = 9.33732e-08, global = -2.39949e-17, cumulative = 7.09838e-14
smoothSolver:  Solving for nuTilda, Initial residual = 1.00489e-08, Final residual = 1.52907e-09, No Iterations 2
ExecutionTime = 364.29 s  ClockTime = 364 s

Time = 4999

smoothSolver:  Solving for Ux, Initial residual = 1.01156e-08, Final residual = 2.63064e-09, No Iterations 2
smoothSolver:  Solving for Uy, Initial residual = 3.66191e-08, Final residual = 9.42052e-09, No Iterations 2
GAMG:  Solving for p, Initial residual = 5.95009e-07, Final residual = 5.95009e-07, No Iterations 0
time step continuity errors : sum local = 2.34801e-07, global = 7.41081e-17, cumulative = 7.10579e-14
smoothSolver:  Solving for nuTilda, Initial residual = 1.50996e-08, Final residual = 1.39619e-09, No Iterations 2
ExecutionTime = 364.35 s  ClockTime = 365 s

Time = 5000

smoothSolver:  Solving for Ux, Initial residual = 1.15133e-08, Final residual = 2.90405e-09, No Iterations 2
smoothSolver:  Solving for Uy, Initial residual = 3.80449e-08, Final residual = 9.73535e-09, No Iterations 2
GAMG:  Solving for p, Initial residual = 1.4668e-06, Final residual = 2.51346e-07, No Iterations 1
time step continuity errors : sum local = 9.91819e-08, global = 3.16401e-16, cumulative = 7.13743e-14
smoothSolver:  Solving for nuTilda, Initial residual = 9.97215e-09, Final residual = 9.97215e-09, No Iterations 0
ExecutionTime = 364.55 s  ClockTime = 365 s

forces wings output:
    sum of forces:
        pressure : (17.0934 31.8819 -5.57853e-19)
        viscous  : (0.0489273 -0.0346777 2.95973e-20)
        porous   : (0 0 0)
    sum of moments:
        pressure : (-1.5941 0.854668 6.91636)
        viscous  : (0.00173389 0.00244637 -0.00704993)
        porous   : (0 0 0)

End

