/*---------------------------------------------------------------------------*\
| =========                 |                                                 |
| \\      /  F ield         | OpenFOAM: The Open Source CFD Toolbox           |
|  \\    /   O peration     | Version:  2.3.0                                 |
|   \\  /    A nd           | Web:      www.OpenFOAM.org                      |
|    \\/     M anipulation  |                                                 |
\*---------------------------------------------------------------------------*/
Build  : 2.3.0-f5222ca19ce6
Exec   : simpleFoam -case Runs/first_arc_300_8/case
Date   : Jan 12 2015
Time   : 01:01:02
Host   : "lordvon-XPS-8300"
PID    : 10201
Case   : Runs/first_arc_300_8/case
nProcs : 1
sigFpe : Enabling floating point exception trapping (FOAM_SIGFPE).
fileModificationChecking : Monitoring run-time modified files using timeStampMaster
allowSystemOperations : Disallowing user-supplied system call operations

// * * * * * * * * * * * * * * * * * * * * * * * * * * * * * * * * * * * * * //
Create time

Create mesh for time = 0

Reading field p

Reading field U

Reading/calculating face flux field phi

Selecting incompressible transport model Newtonian
Selecting RAS turbulence model SpalartAllmaras
SpalartAllmarasCoeffs
{
    sigmaNut        0.66666;
    kappa           0.41;
    Cb1             0.1355;
    Cb2             0.622;
    Cw2             0.3;
    Cw3             2;
    Cv1             7.1;
    Cv2             5;
}

    Employing Ashford correction
No finite volume options present


SIMPLE: convergence criteria
    field p	 tolerance 1e-12
    field U	 tolerance 1e-12
    field nuTilda	 tolerance 1e-12


Starting time loop

forces wings:
    Not including porosity effects

Time = 1

smoothSolver:  Solving for Ux, Initial residual = 1, Final residual = 0.00366119, No Iterations 6
smoothSolver:  Solving for Uy, Initial residual = 1, Final residual = 0.00793575, No Iterations 4
GAMG:  Solving for p, Initial residual = 1, Final residual = 0.0072588, No Iterations 10
time step continuity errors : sum local = 0.000582495, global = 1.30466e-17, cumulative = 1.30466e-17
smoothSolver:  Solving for nuTilda, Initial residual = 1, Final residual = 0.00387187, No Iterations 4
ExecutionTime = 0.36 s  ClockTime = 1 s

Time = 2

smoothSolver:  Solving for Ux, Initial residual = 0.564439, Final residual = 0.00296417, No Iterations 8
smoothSolver:  Solving for Uy, Initial residual = 0.59284, Final residual = 0.00329892, No Iterations 8
GAMG:  Solving for p, Initial residual = 0.783497, Final residual = 0.00522153, No Iterations 6
time step continuity errors : sum local = 0.000937754, global = -1.93764e-16, cumulative = -1.80717e-16
smoothSolver:  Solving for nuTilda, Initial residual = 0.18592, Final residual = 0.000689346, No Iterations 6
ExecutionTime = 0.45 s  ClockTime = 1 s

Time = 3

smoothSolver:  Solving for Ux, Initial residual = 0.195887, Final residual = 0.00101097, No Iterations 8
smoothSolver:  Solving for Uy, Initial residual = 0.18547, Final residual = 0.00101846, No Iterations 8
GAMG:  Solving for p, Initial residual = 0.613524, Final residual = 0.0054808, No Iterations 8
time step continuity errors : sum local = 0.00136759, global = -8.37621e-17, cumulative = -2.64479e-16
smoothSolver:  Solving for nuTilda, Initial residual = 0.0949226, Final residual = 0.000816607, No Iterations 6
ExecutionTime = 0.55 s  ClockTime = 1 s

Time = 4

smoothSolver:  Solving for Ux, Initial residual = 0.0644534, Final residual = 0.000280744, No Iterations 8
smoothSolver:  Solving for Uy, Initial residual = 0.0553079, Final residual = 0.000286588, No Iterations 8
GAMG:  Solving for p, Initial residual = 0.508534, Final residual = 0.0043746, No Iterations 6
time step continuity errors : sum local = 0.00103172, global = -1.082e-16, cumulative = -3.7268e-16
smoothSolver:  Solving for nuTilda, Initial residual = 0.0715592, Final residual = 0.00019551, No Iterations 8
ExecutionTime = 0.64 s  ClockTime = 1 s

Time = 5

smoothSolver:  Solving for Ux, Initial residual = 0.198291, Final residual = 0.00101638, No Iterations 8
smoothSolver:  Solving for Uy, Initial residual = 0.20433, Final residual = 0.00109794, No Iterations 8
GAMG:  Solving for p, Initial residual = 0.47167, Final residual = 0.00358219, No Iterations 6
time step continuity errors : sum local = 0.000879659, global = -1.56789e-17, cumulative = -3.88359e-16
smoothSolver:  Solving for nuTilda, Initial residual = 0.0584412, Final residual = 0.000178263, No Iterations 8
ExecutionTime = 0.72 s  ClockTime = 1 s

forces wings output:
    sum of forces:
        pressure : (-276.615 -954.011 -4.38412e-18)
        viscous  : (0.528345 -0.0509802 2.19259e-20)
        porous   : (0 0 0)
    sum of moments:
        pressure : (47.7006 -13.8308 -509.196)
        viscous  : (0.00254901 0.0264173 -0.0354803)
        porous   : (0 0 0)

Time = 6

smoothSolver:  Solving for Ux, Initial residual = 0.16667, Final residual = 0.000820695, No Iterations 8
smoothSolver:  Solving for Uy, Initial residual = 0.176059, Final residual = 0.000937537, No Iterations 8
GAMG:  Solving for p, Initial residual = 0.39077, Final residual = 0.00310974, No Iterations 8
time step continuity errors : sum local = 0.000781071, global = -2.98458e-16, cumulative = -6.86817e-16
smoothSolver:  Solving for nuTilda, Initial residual = 0.0481451, Final residual = 0.000155927, No Iterations 8
ExecutionTime = 0.82 s  ClockTime = 1 s

Time = 7

smoothSolver:  Solving for Ux, Initial residual = 0.122549, Final residual = 0.00054748, No Iterations 8
smoothSolver:  Solving for Uy, Initial residual = 0.137907, Final residual = 0.000710528, No Iterations 8
GAMG:  Solving for p, Initial residual = 0.293091, Final residual = 0.0015061, No Iterations 6
time step continuity errors : sum local = 0.000364735, global = 8.67606e-17, cumulative = -6.00056e-16
smoothSolver:  Solving for nuTilda, Initial residual = 0.0400186, Final residual = 0.000135503, No Iterations 8
ExecutionTime = 0.91 s  ClockTime = 1 s

Time = 8

smoothSolver:  Solving for Ux, Initial residual = 0.134786, Final residual = 0.000660653, No Iterations 8
smoothSolver:  Solving for Uy, Initial residual = 0.140471, Final residual = 0.000736828, No Iterations 8
GAMG:  Solving for p, Initial residual = 0.328896, Final residual = 0.00242945, No Iterations 6
time step continuity errors : sum local = 0.000626589, global = -8.19469e-17, cumulative = -6.82003e-16
smoothSolver:  Solving for nuTilda, Initial residual = 0.0335743, Final residual = 0.000118364, No Iterations 8
ExecutionTime = 1 s  ClockTime = 1 s

Time = 9

smoothSolver:  Solving for Ux, Initial residual = 0.0491433, Final residual = 0.000217087, No Iterations 8
smoothSolver:  Solving for Uy, Initial residual = 0.0363417, Final residual = 0.00018718, No Iterations 8
GAMG:  Solving for p, Initial residual = 0.265985, Final residual = 0.00230426, No Iterations 7
time step continuity errors : sum local = 0.000597591, global = -1.1153e-16, cumulative = -7.93533e-16
smoothSolver:  Solving for nuTilda, Initial residual = 0.0285932, Final residual = 0.000105011, No Iterations 8
ExecutionTime = 1.09 s  ClockTime = 1 s

Time = 10

smoothSolver:  Solving for Ux, Initial residual = 0.0573973, Final residual = 0.000262742, No Iterations 8
smoothSolver:  Solving for Uy, Initial residual = 0.0574786, Final residual = 0.000294472, No Iterations 8
GAMG:  Solving for p, Initial residual = 0.219159, Final residual = 0.0013964, No Iterations 6
time step continuity errors : sum local = 0.000348439, global = -4.02578e-18, cumulative = -7.97559e-16
smoothSolver:  Solving for nuTilda, Initial residual = 0.024804, Final residual = 9.48474e-05, No Iterations 8
ExecutionTime = 1.18 s  ClockTime = 2 s

forces wings output:
    sum of forces:
        pressure : (-167.573 -572.204 -2.79991e-18)
        viscous  : (0.493937 -0.0853357 3.10389e-20)
        porous   : (0 0 0)
    sum of moments:
        pressure : (28.6102 -8.37864 -308.539)
        viscous  : (0.00426679 0.0246968 -0.0539223)
        porous   : (0 0 0)

Time = 11

smoothSolver:  Solving for Ux, Initial residual = 0.0727566, Final residual = 0.000350127, No Iterations 8
smoothSolver:  Solving for Uy, Initial residual = 0.0789985, Final residual = 0.000405102, No Iterations 8
GAMG:  Solving for p, Initial residual = 0.233741, Final residual = 0.00188902, No Iterations 6
time step continuity errors : sum local = 0.000475011, global = 4.35117e-17, cumulative = -7.54047e-16
smoothSolver:  Solving for nuTilda, Initial residual = 0.0218397, Final residual = 8.66855e-05, No Iterations 8
ExecutionTime = 1.27 s  ClockTime = 2 s

Time = 12

smoothSolver:  Solving for Ux, Initial residual = 0.0292413, Final residual = 0.000112523, No Iterations 8
smoothSolver:  Solving for Uy, Initial residual = 0.0195582, Final residual = 8.50621e-05, No Iterations 8
GAMG:  Solving for p, Initial residual = 0.179246, Final residual = 0.00139318, No Iterations 6
time step continuity errors : sum local = 0.000340529, global = 3.87309e-17, cumulative = -7.15317e-16
smoothSolver:  Solving for nuTilda, Initial residual = 0.0193576, Final residual = 7.95058e-05, No Iterations 8
ExecutionTime = 1.36 s  ClockTime = 2 s

Time = 13

smoothSolver:  Solving for Ux, Initial residual = 0.0471834, Final residual = 0.00020519, No Iterations 8
smoothSolver:  Solving for Uy, Initial residual = 0.0526331, Final residual = 0.000260404, No Iterations 8
GAMG:  Solving for p, Initial residual = 0.15007, Final residual = 0.000981056, No Iterations 6
time step continuity errors : sum local = 0.000233692, global = 1.88363e-16, cumulative = -5.26954e-16
smoothSolver:  Solving for nuTilda, Initial residual = 0.0172763, Final residual = 7.29056e-05, No Iterations 8
ExecutionTime = 1.45 s  ClockTime = 2 s

Time = 14

smoothSolver:  Solving for Ux, Initial residual = 0.039788, Final residual = 0.000176404, No Iterations 8
smoothSolver:  Solving for Uy, Initial residual = 0.0385023, Final residual = 0.000189709, No Iterations 8
GAMG:  Solving for p, Initial residual = 0.167133, Final residual = 0.00111508, No Iterations 6
time step continuity errors : sum local = 0.000272303, global = 2.02527e-16, cumulative = -3.24427e-16
smoothSolver:  Solving for nuTilda, Initial residual = 0.0155389, Final residual = 6.7094e-05, No Iterations 8
ExecutionTime = 1.54 s  ClockTime = 2 s

Time = 15

smoothSolver:  Solving for Ux, Initial residual = 0.0193848, Final residual = 7.2327e-05, No Iterations 8
smoothSolver:  Solving for Uy, Initial residual = 0.0114406, Final residual = 4.97157e-05, No Iterations 8
GAMG:  Solving for p, Initial residual = 0.12733, Final residual = 0.000631656, No Iterations 6
time step continuity errors : sum local = 0.000151403, global = -1.06577e-16, cumulative = -4.31004e-16
smoothSolver:  Solving for nuTilda, Initial residual = 0.0141201, Final residual = 6.22114e-05, No Iterations 8
ExecutionTime = 1.63 s  ClockTime = 2 s

forces wings output:
    sum of forces:
        pressure : (-57.4189 -187.241 -9.68483e-19)
        viscous  : (0.480925 -0.0802173 1.43648e-20)
        porous   : (0 0 0)
    sum of moments:
        pressure : (9.36204 -2.87095 -105.828)
        viscous  : (0.00401086 0.0240463 -0.0504067)
        porous   : (0 0 0)

Time = 16

smoothSolver:  Solving for Ux, Initial residual = 0.0283702, Final residual = 0.000125589, No Iterations 8
smoothSolver:  Solving for Uy, Initial residual = 0.0292563, Final residual = 0.000142442, No Iterations 8
GAMG:  Solving for p, Initial residual = 0.110399, Final residual = 0.0005527, No Iterations 6
time step continuity errors : sum local = 0.00013096, global = -7.47632e-17, cumulative = -5.05767e-16
smoothSolver:  Solving for nuTilda, Initial residual = 0.0129514, Final residual = 5.81611e-05, No Iterations 8
ExecutionTime = 1.74 s  ClockTime = 2 s

Time = 17

smoothSolver:  Solving for Ux, Initial residual = 0.0217605, Final residual = 9.67567e-05, No Iterations 8
smoothSolver:  Solving for Uy, Initial residual = 0.0209963, Final residual = 0.000100213, No Iterations 8
GAMG:  Solving for p, Initial residual = 0.116828, Final residual = 0.000718415, No Iterations 6
time step continuity errors : sum local = 0.000169283, global = 1.01303e-16, cumulative = -4.04465e-16
smoothSolver:  Solving for nuTilda, Initial residual = 0.0119718, Final residual = 5.46425e-05, No Iterations 8
ExecutionTime = 1.82 s  ClockTime = 2 s

Time = 18

smoothSolver:  Solving for Ux, Initial residual = 0.0134142, Final residual = 5.1055e-05, No Iterations 8
smoothSolver:  Solving for Uy, Initial residual = 0.0124981, Final residual = 5.63196e-05, No Iterations 8
GAMG:  Solving for p, Initial residual = 0.0894948, Final residual = 0.000658225, No Iterations 5
time step continuity errors : sum local = 0.000153989, global = -4.89094e-17, cumulative = -4.53374e-16
smoothSolver:  Solving for nuTilda, Initial residual = 0.0110946, Final residual = 5.1348e-05, No Iterations 8
ExecutionTime = 1.91 s  ClockTime = 2 s

Time = 19

smoothSolver:  Solving for Ux, Initial residual = 0.0182479, Final residual = 7.69091e-05, No Iterations 8
smoothSolver:  Solving for Uy, Initial residual = 0.0190612, Final residual = 9.19195e-05, No Iterations 8
GAMG:  Solving for p, Initial residual = 0.0786451, Final residual = 0.000432368, No Iterations 6
time step continuity errors : sum local = 0.000100012, global = 8.38988e-17, cumulative = -3.69475e-16
smoothSolver:  Solving for nuTilda, Initial residual = 0.0103138, Final residual = 4.82924e-05, No Iterations 8
ExecutionTime = 2 s  ClockTime = 2 s

Time = 20

smoothSolver:  Solving for Ux, Initial residual = 0.0126691, Final residual = 5.12672e-05, No Iterations 8
smoothSolver:  Solving for Uy, Initial residual = 0.00909326, Final residual = 4.26874e-05, No Iterations 8
GAMG:  Solving for p, Initial residual = 0.0783842, Final residual = 0.000347194, No Iterations 6
time step continuity errors : sum local = 8.2031e-05, global = 2.52261e-16, cumulative = -1.17215e-16
smoothSolver:  Solving for nuTilda, Initial residual = 0.0096233, Final residual = 4.55109e-05, No Iterations 8
ExecutionTime = 2.09 s  ClockTime = 2 s

forces wings output:
    sum of forces:
        pressure : (-9.56257 -21.3436 -1.94437e-19)
        viscous  : (0.470169 -0.0701525 3.39643e-21)
        porous   : (0 0 0)
    sum of moments:
        pressure : (1.06718 -0.478128 -17.7441)
        viscous  : (0.00350763 0.0235084 -0.0445617)
        porous   : (0 0 0)

Time = 21

smoothSolver:  Solving for Ux, Initial residual = 0.011835, Final residual = 4.78502e-05, No Iterations 8
smoothSolver:  Solving for Uy, Initial residual = 0.00861398, Final residual = 4.00693e-05, No Iterations 8
GAMG:  Solving for p, Initial residual = 0.0620882, Final residual = 0.000413401, No Iterations 5
time step continuity errors : sum local = 9.82722e-05, global = -1.71827e-17, cumulative = -1.34397e-16
smoothSolver:  Solving for nuTilda, Initial residual = 0.00903323, Final residual = 4.30576e-05, No Iterations 8
ExecutionTime = 2.18 s  ClockTime = 3 s

Time = 22

smoothSolver:  Solving for Ux, Initial residual = 0.0125587, Final residual = 5.37072e-05, No Iterations 8
smoothSolver:  Solving for Uy, Initial residual = 0.0111518, Final residual = 5.26498e-05, No Iterations 8
GAMG:  Solving for p, Initial residual = 0.05379, Final residual = 0.00024171, No Iterations 6
time step continuity errors : sum local = 5.70984e-05, global = -8.18926e-17, cumulative = -2.1629e-16
smoothSolver:  Solving for nuTilda, Initial residual = 0.00853003, Final residual = 4.0887e-05, No Iterations 8
ExecutionTime = 2.27 s  ClockTime = 3 s

Time = 23

smoothSolver:  Solving for Ux, Initial residual = 0.00836505, Final residual = 3.40382e-05, No Iterations 8
smoothSolver:  Solving for Uy, Initial residual = 0.00516165, Final residual = 2.23874e-05, No Iterations 8
GAMG:  Solving for p, Initial residual = 0.0503837, Final residual = 0.000406167, No Iterations 5
time step continuity errors : sum local = 9.60476e-05, global = 1.4795e-16, cumulative = -6.83403e-17
smoothSolver:  Solving for nuTilda, Initial residual = 0.00808478, Final residual = 3.8918e-05, No Iterations 8
ExecutionTime = 2.36 s  ClockTime = 3 s

Time = 24

smoothSolver:  Solving for Ux, Initial residual = 0.00837253, Final residual = 3.28202e-05, No Iterations 8
smoothSolver:  Solving for Uy, Initial residual = 0.00733865, Final residual = 3.39019e-05, No Iterations 8
GAMG:  Solving for p, Initial residual = 0.0429286, Final residual = 0.000251761, No Iterations 5
time step continuity errors : sum local = 5.87624e-05, global = 6.52224e-18, cumulative = -6.18181e-17
smoothSolver:  Solving for nuTilda, Initial residual = 0.00767272, Final residual = 3.70609e-05, No Iterations 8
ExecutionTime = 2.44 s  ClockTime = 3 s

Time = 25

smoothSolver:  Solving for Ux, Initial residual = 0.00843305, Final residual = 3.37027e-05, No Iterations 8
smoothSolver:  Solving for Uy, Initial residual = 0.00674769, Final residual = 3.19544e-05, No Iterations 8
GAMG:  Solving for p, Initial residual = 0.0382777, Final residual = 0.000349654, No Iterations 5
time step continuity errors : sum local = 8.28546e-05, global = -5.95817e-17, cumulative = -1.214e-16
smoothSolver:  Solving for nuTilda, Initial residual = 0.00729361, Final residual = 3.53221e-05, No Iterations 8
ExecutionTime = 2.53 s  ClockTime = 3 s

forces wings output:
    sum of forces:
        pressure : (4.08922 26.2526 8.06104e-20)
        viscous  : (0.458366 -0.0638462 -1.27158e-21)
        porous   : (0 0 0)
    sum of moments:
        pressure : (-1.31263 0.204461 7.38007)
        viscous  : (0.00319231 0.0229183 -0.040956)
        porous   : (0 0 0)

Time = 26

smoothSolver:  Solving for Ux, Initial residual = 0.00662921, Final residual = 2.59956e-05, No Iterations 8
smoothSolver:  Solving for Uy, Initial residual = 0.00314799, Final residual = 1.44388e-05, No Iterations 8
GAMG:  Solving for p, Initial residual = 0.0321902, Final residual = 0.000219271, No Iterations 5
time step continuity errors : sum local = 5.17807e-05, global = 8.54066e-17, cumulative = -3.59932e-17
smoothSolver:  Solving for nuTilda, Initial residual = 0.00693942, Final residual = 3.36713e-05, No Iterations 8
bounding nuTilda, min: -3.91482e-05 max: 0.40027 average: 0.0874819
ExecutionTime = 2.62 s  ClockTime = 3 s

Time = 27

smoothSolver:  Solving for Ux, Initial residual = 0.00698404, Final residual = 2.90147e-05, No Iterations 8
smoothSolver:  Solving for Uy, Initial residual = 0.00461863, Final residual = 2.15571e-05, No Iterations 8
GAMG:  Solving for p, Initial residual = 0.0291019, Final residual = 0.000217597, No Iterations 5
time step continuity errors : sum local = 5.07996e-05, global = -1.12828e-16, cumulative = -1.48821e-16
smoothSolver:  Solving for nuTilda, Initial residual = 0.00661614, Final residual = 3.21822e-05, No Iterations 8
bounding nuTilda, min: -4.9354e-05 max: 0.400261 average: 0.0865345
ExecutionTime = 2.7 s  ClockTime = 3 s

Time = 28

smoothSolver:  Solving for Ux, Initial residual = 0.0061019, Final residual = 2.58916e-05, No Iterations 8
smoothSolver:  Solving for Uy, Initial residual = 0.00396085, Final residual = 1.8696e-05, No Iterations 8
GAMG:  Solving for p, Initial residual = 0.0267933, Final residual = 0.000228729, No Iterations 5
time step continuity errors : sum local = 5.40098e-05, global = 4.85599e-17, cumulative = -1.00261e-16
smoothSolver:  Solving for nuTilda, Initial residual = 0.00632248, Final residual = 3.078e-05, No Iterations 8
ExecutionTime = 2.79 s  ClockTime = 3 s

Time = 29

smoothSolver:  Solving for Ux, Initial residual = 0.00508549, Final residual = 2.13032e-05, No Iterations 8
smoothSolver:  Solving for Uy, Initial residual = 0.00277543, Final residual = 1.29412e-05, No Iterations 8
GAMG:  Solving for p, Initial residual = 0.0217738, Final residual = 0.000113874, No Iterations 5
time step continuity errors : sum local = 2.65966e-05, global = 1.2389e-16, cumulative = 2.36291e-17
smoothSolver:  Solving for nuTilda, Initial residual = 0.0060572, Final residual = 2.95006e-05, No Iterations 8
bounding nuTilda, min: -0.00011958 max: 0.400093 average: 0.0847139
ExecutionTime = 2.88 s  ClockTime = 3 s

Time = 30

smoothSolver:  Solving for Ux, Initial residual = 0.00520601, Final residual = 2.1643e-05, No Iterations 8
smoothSolver:  Solving for Uy, Initial residual = 0.00354681, Final residual = 1.69138e-05, No Iterations 8
GAMG:  Solving for p, Initial residual = 0.0203337, Final residual = 0.000149206, No Iterations 5
time step continuity errors : sum local = 3.49707e-05, global = 2.29613e-16, cumulative = 2.53242e-16
smoothSolver:  Solving for nuTilda, Initial residual = 0.00579954, Final residual = 2.82373e-05, No Iterations 8
bounding nuTilda, min: -0.000142642 max: 0.400005 average: 0.0838378
ExecutionTime = 2.96 s  ClockTime = 3 s

forces wings output:
    sum of forces:
        pressure : (5.06872 30.8419 1.311e-19)
        viscous  : (0.4462 -0.0606448 -2.21742e-21)
        porous   : (0 0 0)
    sum of moments:
        pressure : (-1.54209 0.253436 9.16844)
        viscous  : (0.00303224 0.02231 -0.0390814)
        porous   : (0 0 0)

Time = 31

smoothSolver:  Solving for Ux, Initial residual = 0.0049416, Final residual = 2.04885e-05, No Iterations 8
smoothSolver:  Solving for Uy, Initial residual = 0.00261732, Final residual = 1.27676e-05, No Iterations 8
GAMG:  Solving for p, Initial residual = 0.0183944, Final residual = 0.000123951, No Iterations 5
time step continuity errors : sum local = 2.94386e-05, global = 9.19025e-17, cumulative = 3.45145e-16
smoothSolver:  Solving for nuTilda, Initial residual = 0.00556519, Final residual = 2.70942e-05, No Iterations 8
ExecutionTime = 3.06 s  ClockTime = 3 s

Time = 32

smoothSolver:  Solving for Ux, Initial residual = 0.00476362, Final residual = 1.98643e-05, No Iterations 8
smoothSolver:  Solving for Uy, Initial residual = 0.00212265, Final residual = 1.03689e-05, No Iterations 8
GAMG:  Solving for p, Initial residual = 0.0149712, Final residual = 0.0001018, No Iterations 5
time step continuity errors : sum local = 2.43415e-05, global = -1.99059e-18, cumulative = 3.43154e-16
smoothSolver:  Solving for nuTilda, Initial residual = 0.00533556, Final residual = 2.59647e-05, No Iterations 8
bounding nuTilda, min: -0.000249797 max: 0.399924 average: 0.0821537
ExecutionTime = 3.15 s  ClockTime = 4 s

Time = 33

smoothSolver:  Solving for Ux, Initial residual = 0.00478478, Final residual = 2.02263e-05, No Iterations 8
smoothSolver:  Solving for Uy, Initial residual = 0.00241086, Final residual = 1.17024e-05, No Iterations 8
GAMG:  Solving for p, Initial residual = 0.013899, Final residual = 0.000103302, No Iterations 5
time step continuity errors : sum local = 2.43603e-05, global = -2.33682e-16, cumulative = 1.09472e-16
smoothSolver:  Solving for nuTilda, Initial residual = 0.00513247, Final residual = 2.49737e-05, No Iterations 8
ExecutionTime = 3.24 s  ClockTime = 4 s

Time = 34

smoothSolver:  Solving for Ux, Initial residual = 0.00449745, Final residual = 1.9149e-05, No Iterations 8
smoothSolver:  Solving for Uy, Initial residual = 0.00192522, Final residual = 9.61517e-06, No Iterations 8
GAMG:  Solving for p, Initial residual = 0.012931, Final residual = 6.87838e-05, No Iterations 5
time step continuity errors : sum local = 1.63701e-05, global = -1.52788e-16, cumulative = -4.33155e-17
smoothSolver:  Solving for nuTilda, Initial residual = 0.00493742, Final residual = 2.3991e-05, No Iterations 8
bounding nuTilda, min: -6.7922e-05 max: 0.399958 average: 0.0805507
ExecutionTime = 3.32 s  ClockTime = 4 s

Time = 35

smoothSolver:  Solving for Ux, Initial residual = 0.00427502, Final residual = 1.81592e-05, No Iterations 8
smoothSolver:  Solving for Uy, Initial residual = 0.0020044, Final residual = 1.00288e-05, No Iterations 8
GAMG:  Solving for p, Initial residual = 0.0110489, Final residual = 9.86004e-05, No Iterations 4
time step continuity errors : sum local = 2.31412e-05, global = -7.25122e-17, cumulative = -1.15828e-16
smoothSolver:  Solving for nuTilda, Initial residual = 0.00476179, Final residual = 2.31206e-05, No Iterations 8
ExecutionTime = 3.4 s  ClockTime = 4 s

forces wings output:
    sum of forces:
        pressure : (3.89132 27.9396 1.4262e-19)
        viscous  : (0.433569 -0.0586629 -2.67838e-21)
        porous   : (0 0 0)
    sum of moments:
        pressure : (-1.39698 0.194566 6.98702)
        viscous  : (0.00293315 0.0216785 -0.037867)
        porous   : (0 0 0)

Time = 36

smoothSolver:  Solving for Ux, Initial residual = 0.00418452, Final residual = 1.77975e-05, No Iterations 8
smoothSolver:  Solving for Uy, Initial residual = 0.00199634, Final residual = 1.00391e-05, No Iterations 8
GAMG:  Solving for p, Initial residual = 0.0103568, Final residual = 6.27966e-05, No Iterations 5
time step continuity errors : sum local = 1.48841e-05, global = 1.29635e-17, cumulative = -1.02864e-16
smoothSolver:  Solving for nuTilda, Initial residual = 0.00458679, Final residual = 2.2233e-05, No Iterations 8
bounding nuTilda, min: -0.000110404 max: 0.400007 average: 0.0790217
ExecutionTime = 3.5 s  ClockTime = 4 s

Time = 37

smoothSolver:  Solving for Ux, Initial residual = 0.00409142, Final residual = 1.74861e-05, No Iterations 8
smoothSolver:  Solving for Uy, Initial residual = 0.00156309, Final residual = 8.15411e-06, No Iterations 8
GAMG:  Solving for p, Initial residual = 0.00955519, Final residual = 8.35917e-05, No Iterations 4
time step continuity errors : sum local = 1.98647e-05, global = 1.68091e-16, cumulative = 6.52264e-17
smoothSolver:  Solving for nuTilda, Initial residual = 0.00442565, Final residual = 2.14359e-05, No Iterations 8
ExecutionTime = 3.58 s  ClockTime = 4 s

Time = 38

smoothSolver:  Solving for Ux, Initial residual = 0.00400076, Final residual = 1.72432e-05, No Iterations 8
smoothSolver:  Solving for Uy, Initial residual = 0.00159149, Final residual = 8.32915e-06, No Iterations 8
GAMG:  Solving for p, Initial residual = 0.00838315, Final residual = 7.35923e-05, No Iterations 4
time step continuity errors : sum local = 1.75067e-05, global = 1.03935e-16, cumulative = 1.69162e-16
smoothSolver:  Solving for nuTilda, Initial residual = 0.00426843, Final residual = 2.06373e-05, No Iterations 8
bounding nuTilda, min: -0.000145692 max: 0.400006 average: 0.0775615
ExecutionTime = 3.66 s  ClockTime = 4 s

Time = 39

smoothSolver:  Solving for Ux, Initial residual = 0.00390102, Final residual = 1.69382e-05, No Iterations 8
smoothSolver:  Solving for Uy, Initial residual = 0.00156271, Final residual = 8.26265e-06, No Iterations 8
GAMG:  Solving for p, Initial residual = 0.00779515, Final residual = 4.66098e-05, No Iterations 5
time step continuity errors : sum local = 1.10407e-05, global = 3.15202e-17, cumulative = 2.00682e-16
smoothSolver:  Solving for nuTilda, Initial residual = 0.00412465, Final residual = 1.99206e-05, No Iterations 8
ExecutionTime = 3.75 s  ClockTime = 4 s

Time = 40

smoothSolver:  Solving for Ux, Initial residual = 0.00377914, Final residual = 1.64692e-05, No Iterations 8
smoothSolver:  Solving for Uy, Initial residual = 0.00146475, Final residual = 7.87013e-06, No Iterations 8
GAMG:  Solving for p, Initial residual = 0.00726968, Final residual = 6.13581e-05, No Iterations 4
time step continuity errors : sum local = 1.45525e-05, global = 1.10402e-16, cumulative = 3.11084e-16
smoothSolver:  Solving for nuTilda, Initial residual = 0.00398598, Final residual = 1.92177e-05, No Iterations 8
bounding nuTilda, min: -0.000177047 max: 0.399955 average: 0.0761649
ExecutionTime = 3.83 s  ClockTime = 4 s

forces wings output:
    sum of forces:
        pressure : (2.96046 25.5041 1.42729e-19)
        viscous  : (0.421921 -0.057079 -3.01342e-21)
        porous   : (0 0 0)
    sum of moments:
        pressure : (-1.27521 0.148023 5.26407)
        viscous  : (0.00285395 0.021096 -0.0369071)
        porous   : (0 0 0)

Time = 41

smoothSolver:  Solving for Ux, Initial residual = 0.00369084, Final residual = 1.60597e-05, No Iterations 8
smoothSolver:  Solving for Uy, Initial residual = 0.00147134, Final residual = 7.898e-06, No Iterations 8
GAMG:  Solving for p, Initial residual = 0.00669993, Final residual = 6.35746e-05, No Iterations 4
time step continuity errors : sum local = 1.50658e-05, global = -7.27318e-18, cumulative = 3.03811e-16
smoothSolver:  Solving for nuTilda, Initial residual = 0.00385675, Final residual = 1.85714e-05, No Iterations 8
ExecutionTime = 3.92 s  ClockTime = 4 s

Time = 42

smoothSolver:  Solving for Ux, Initial residual = 0.00363791, Final residual = 1.58028e-05, No Iterations 8
smoothSolver:  Solving for Uy, Initial residual = 0.0013871, Final residual = 7.53348e-06, No Iterations 8
GAMG:  Solving for p, Initial residual = 0.00630771, Final residual = 3.52586e-05, No Iterations 5
time step continuity errors : sum local = 8.34519e-06, global = -1.4603e-16, cumulative = 1.57781e-16
smoothSolver:  Solving for nuTilda, Initial residual = 0.00372984, Final residual = 1.79343e-05, No Iterations 8
bounding nuTilda, min: -0.000203089 max: 0.399887 average: 0.0748271
ExecutionTime = 4.01 s  ClockTime = 4 s

Time = 43

smoothSolver:  Solving for Ux, Initial residual = 0.00358929, Final residual = 1.56103e-05, No Iterations 8
smoothSolver:  Solving for Uy, Initial residual = 0.0013308, Final residual = 7.30397e-06, No Iterations 8
GAMG:  Solving for p, Initial residual = 0.00590906, Final residual = 4.22014e-05, No Iterations 4
time step continuity errors : sum local = 1.00199e-05, global = -6.59164e-17, cumulative = 9.18645e-17
smoothSolver:  Solving for nuTilda, Initial residual = 0.00360891, Final residual = 1.73391e-05, No Iterations 8
ExecutionTime = 4.09 s  ClockTime = 4 s

Time = 44

smoothSolver:  Solving for Ux, Initial residual = 0.00351934, Final residual = 1.5372e-05, No Iterations 8
smoothSolver:  Solving for Uy, Initial residual = 0.001341, Final residual = 7.39933e-06, No Iterations 8
GAMG:  Solving for p, Initial residual = 0.00557755, Final residual = 4.8393e-05, No Iterations 4
time step continuity errors : sum local = 1.14954e-05, global = 1.38373e-16, cumulative = 2.30237e-16
smoothSolver:  Solving for nuTilda, Initial residual = 0.00349144, Final residual = 1.67619e-05, No Iterations 8
bounding nuTilda, min: -0.000224531 max: 0.399824 average: 0.0735444
ExecutionTime = 4.17 s  ClockTime = 5 s

Time = 45

smoothSolver:  Solving for Ux, Initial residual = 0.0034421, Final residual = 1.51096e-05, No Iterations 8
smoothSolver:  Solving for Uy, Initial residual = 0.00133087, Final residual = 7.40497e-06, No Iterations 8
GAMG:  Solving for p, Initial residual = 0.0053277, Final residual = 5.23159e-05, No Iterations 4
time step continuity errors : sum local = 1.24149e-05, global = 8.99917e-17, cumulative = 3.20229e-16
smoothSolver:  Solving for nuTilda, Initial residual = 0.00337996, Final residual = 1.62209e-05, No Iterations 8
ExecutionTime = 4.26 s  ClockTime = 5 s

forces wings output:
    sum of forces:
        pressure : (2.76076 25.1005 1.44673e-19)
        viscous  : (0.410177 -0.0554851 -3.23357e-21)
        porous   : (0 0 0)
    sum of moments:
        pressure : (-1.25502 0.138038 4.893)
        viscous  : (0.00277425 0.0205088 -0.0359326)
        porous   : (0 0 0)

Time = 46

smoothSolver:  Solving for Ux, Initial residual = 0.00336929, Final residual = 1.48597e-05, No Iterations 8
smoothSolver:  Solving for Uy, Initial residual = 0.00133008, Final residual = 7.42504e-06, No Iterations 8
GAMG:  Solving for p, Initial residual = 0.00506915, Final residual = 3.01972e-05, No Iterations 5
time step continuity errors : sum local = 7.18652e-06, global = 4.71648e-17, cumulative = 3.67394e-16
smoothSolver:  Solving for nuTilda, Initial residual = 0.00327316, Final residual = 1.57007e-05, No Iterations 8
bounding nuTilda, min: -0.000241837 max: 0.39978 average: 0.072313
ExecutionTime = 4.35 s  ClockTime = 5 s

Time = 47

smoothSolver:  Solving for Ux, Initial residual = 0.00331364, Final residual = 1.46528e-05, No Iterations 8
smoothSolver:  Solving for Uy, Initial residual = 0.00130241, Final residual = 7.31176e-06, No Iterations 8
GAMG:  Solving for p, Initial residual = 0.00489605, Final residual = 3.29978e-05, No Iterations 5
time step continuity errors : sum local = 7.85933e-06, global = -5.42743e-17, cumulative = 3.1312e-16
smoothSolver:  Solving for nuTilda, Initial residual = 0.00317069, Final residual = 1.52067e-05, No Iterations 8
ExecutionTime = 4.43 s  ClockTime = 5 s

Time = 48

smoothSolver:  Solving for Ux, Initial residual = 0.00326947, Final residual = 1.44769e-05, No Iterations 8
smoothSolver:  Solving for Uy, Initial residual = 0.00126903, Final residual = 7.16675e-06, No Iterations 8
GAMG:  Solving for p, Initial residual = 0.00467521, Final residual = 4.10961e-05, No Iterations 4
time step continuity errors : sum local = 9.70541e-06, global = -1.0039e-16, cumulative = 2.1273e-16
smoothSolver:  Solving for nuTilda, Initial residual = 0.00307324, Final residual = 1.47321e-05, No Iterations 8
bounding nuTilda, min: -0.000255987 max: 0.399755 average: 0.0711297
ExecutionTime = 4.52 s  ClockTime = 5 s

Time = 49

smoothSolver:  Solving for Ux, Initial residual = 0.00322604, Final residual = 1.43037e-05, No Iterations 8
smoothSolver:  Solving for Uy, Initial residual = 0.00127127, Final residual = 7.17735e-06, No Iterations 8
GAMG:  Solving for p, Initial residual = 0.00451002, Final residual = 3.79372e-05, No Iterations 4
time step continuity errors : sum local = 8.9429e-06, global = 8.47578e-17, cumulative = 2.97488e-16
smoothSolver:  Solving for nuTilda, Initial residual = 0.00298123, Final residual = 1.42799e-05, No Iterations 8
ExecutionTime = 4.6 s  ClockTime = 5 s

Time = 50

smoothSolver:  Solving for Ux, Initial residual = 0.00317756, Final residual = 1.41152e-05, No Iterations 8
smoothSolver:  Solving for Uy, Initial residual = 0.00127697, Final residual = 7.21826e-06, No Iterations 8
GAMG:  Solving for p, Initial residual = 0.00436468, Final residual = 3.39856e-05, No Iterations 4
time step continuity errors : sum local = 8.01001e-06, global = 1.06555e-16, cumulative = 4.04042e-16
smoothSolver:  Solving for nuTilda, Initial residual = 0.00289322, Final residual = 1.38488e-05, No Iterations 8
bounding nuTilda, min: -0.00026741 max: 0.399748 average: 0.0699917
ExecutionTime = 4.69 s  ClockTime = 5 s

forces wings output:
    sum of forces:
        pressure : (2.87133 25.7561 1.54939e-19)
        viscous  : (0.399248 -0.0539125 -3.63697e-21)
        porous   : (0 0 0)
    sum of moments:
        pressure : (-1.28781 0.143566 5.09322)
        viscous  : (0.00269563 0.0199624 -0.0350003)
        porous   : (0 0 0)

Time = 51

smoothSolver:  Solving for Ux, Initial residual = 0.0031273, Final residual = 1.39192e-05, No Iterations 8
smoothSolver:  Solving for Uy, Initial residual = 0.00127919, Final residual = 7.24828e-06, No Iterations 8
GAMG:  Solving for p, Initial residual = 0.0042085, Final residual = 3.62495e-05, No Iterations 4
time step continuity errors : sum local = 8.57584e-06, global = 1.13187e-16, cumulative = 5.1723e-16
smoothSolver:  Solving for nuTilda, Initial residual = 0.00280838, Final residual = 1.34401e-05, No Iterations 8
ExecutionTime = 4.77 s  ClockTime = 5 s

Time = 52

smoothSolver:  Solving for Ux, Initial residual = 0.00308177, Final residual = 1.37325e-05, No Iterations 8
smoothSolver:  Solving for Uy, Initial residual = 0.00127471, Final residual = 7.23879e-06, No Iterations 8
GAMG:  Solving for p, Initial residual = 0.00408944, Final residual = 3.91837e-05, No Iterations 4
time step continuity errors : sum local = 9.27155e-06, global = -1.51734e-17, cumulative = 5.02056e-16
smoothSolver:  Solving for nuTilda, Initial residual = 0.00272631, Final residual = 1.30514e-05, No Iterations 8
bounding nuTilda, min: -0.000276447 max: 0.399751 average: 0.0688963
ExecutionTime = 4.85 s  ClockTime = 5 s

Time = 53

smoothSolver:  Solving for Ux, Initial residual = 0.0030413, Final residual = 1.3557e-05, No Iterations 8
smoothSolver:  Solving for Uy, Initial residual = 0.00126197, Final residual = 7.18306e-06, No Iterations 8
GAMG:  Solving for p, Initial residual = 0.00400479, Final residual = 2.58016e-05, No Iterations 5
time step continuity errors : sum local = 6.11981e-06, global = -9.89544e-17, cumulative = 4.03102e-16
smoothSolver:  Solving for nuTilda, Initial residual = 0.00264876, Final residual = 1.26796e-05, No Iterations 8
ExecutionTime = 4.94 s  ClockTime = 5 s

Time = 54

smoothSolver:  Solving for Ux, Initial residual = 0.00300449, Final residual = 1.33938e-05, No Iterations 8
smoothSolver:  Solving for Uy, Initial residual = 0.00124967, Final residual = 7.12341e-06, No Iterations 8
GAMG:  Solving for p, Initial residual = 0.00389697, Final residual = 3.31542e-05, No Iterations 4
time step continuity errors : sum local = 7.82321e-06, global = 1.6963e-17, cumulative = 4.20065e-16
smoothSolver:  Solving for nuTilda, Initial residual = 0.00257515, Final residual = 1.23221e-05, No Iterations 8
bounding nuTilda, min: -0.000283926 max: 0.399756 average: 0.067841
ExecutionTime = 5.04 s  ClockTime = 5 s

Time = 55

smoothSolver:  Solving for Ux, Initial residual = 0.00296544, Final residual = 1.32255e-05, No Iterations 8
smoothSolver:  Solving for Uy, Initial residual = 0.00124552, Final residual = 7.09985e-06, No Iterations 8
GAMG:  Solving for p, Initial residual = 0.00381418, Final residual = 3.28825e-05, No Iterations 4
time step continuity errors : sum local = 7.73689e-06, global = -1.17895e-16, cumulative = 3.0217e-16
smoothSolver:  Solving for nuTilda, Initial residual = 0.00250493, Final residual = 1.19763e-05, No Iterations 8
ExecutionTime = 5.12 s  ClockTime = 6 s

forces wings output:
    sum of forces:
        pressure : (2.91628 26.3327 1.64335e-19)
        viscous  : (0.388706 -0.0523485 -3.97431e-21)
        porous   : (0 0 0)
    sum of moments:
        pressure : (-1.31663 0.145814 5.17086)
        viscous  : (0.00261742 0.0194353 -0.0340843)
        porous   : (0 0 0)

Time = 56

smoothSolver:  Solving for Ux, Initial residual = 0.00292525, Final residual = 1.30587e-05, No Iterations 8
smoothSolver:  Solving for Uy, Initial residual = 0.00124581, Final residual = 7.10048e-06, No Iterations 8
GAMG:  Solving for p, Initial residual = 0.00372994, Final residual = 3.22961e-05, No Iterations 4
time step continuity errors : sum local = 7.61679e-06, global = -1.94361e-16, cumulative = 1.07809e-16
smoothSolver:  Solving for nuTilda, Initial residual = 0.00243814, Final residual = 1.16436e-05, No Iterations 8
bounding nuTilda, min: -0.000290034 max: 0.399758 average: 0.0668237
ExecutionTime = 5.2 s  ClockTime = 6 s

Time = 57

smoothSolver:  Solving for Ux, Initial residual = 0.00288545, Final residual = 1.28964e-05, No Iterations 8
smoothSolver:  Solving for Uy, Initial residual = 0.00124574, Final residual = 7.10052e-06, No Iterations 8
GAMG:  Solving for p, Initial residual = 0.00365445, Final residual = 3.26909e-05, No Iterations 4
time step continuity errors : sum local = 7.70899e-06, global = -1.53123e-16, cumulative = -4.53138e-17
smoothSolver:  Solving for nuTilda, Initial residual = 0.00237459, Final residual = 1.1326e-05, No Iterations 8
ExecutionTime = 5.29 s  ClockTime = 6 s

Time = 58

smoothSolver:  Solving for Ux, Initial residual = 0.00285001, Final residual = 1.27502e-05, No Iterations 8
smoothSolver:  Solving for Uy, Initial residual = 0.00124107, Final residual = 7.08051e-06, No Iterations 8
GAMG:  Solving for p, Initial residual = 0.00359271, Final residual = 3.54213e-05, No Iterations 4
time step continuity errors : sum local = 8.35653e-06, global = -2.16339e-16, cumulative = -2.61652e-16
smoothSolver:  Solving for nuTilda, Initial residual = 0.00231372, Final residual = 1.10204e-05, No Iterations 8
bounding nuTilda, min: -0.000294752 max: 0.399758 average: 0.0658423
ExecutionTime = 5.37 s  ClockTime = 6 s

Time = 59

smoothSolver:  Solving for Ux, Initial residual = 0.00281839, Final residual = 1.26151e-05, No Iterations 8
smoothSolver:  Solving for Uy, Initial residual = 0.00123338, Final residual = 7.04662e-06, No Iterations 8
GAMG:  Solving for p, Initial residual = 0.00352999, Final residual = 1.77735e-05, No Iterations 5
time step continuity errors : sum local = 4.19318e-06, global = 2.44599e-16, cumulative = -1.7053e-17
smoothSolver:  Solving for nuTilda, Initial residual = 0.00225508, Final residual = 1.07247e-05, No Iterations 8
ExecutionTime = 5.45 s  ClockTime = 6 s

Time = 60

smoothSolver:  Solving for Ux, Initial residual = 0.00278864, Final residual = 1.24847e-05, No Iterations 8
smoothSolver:  Solving for Uy, Initial residual = 0.00122542, Final residual = 7.01097e-06, No Iterations 8
GAMG:  Solving for p, Initial residual = 0.00345895, Final residual = 1.70686e-05, No Iterations 5
time step continuity errors : sum local = 4.02856e-06, global = -1.52824e-16, cumulative = -1.69877e-16
smoothSolver:  Solving for nuTilda, Initial residual = 0.00219839, Final residual = 1.04369e-05, No Iterations 8
bounding nuTilda, min: -0.000298664 max: 0.399758 average: 0.0648948
ExecutionTime = 5.54 s  ClockTime = 6 s

forces wings output:
    sum of forces:
        pressure : (2.93214 26.8072 1.70559e-19)
        viscous  : (0.378625 -0.0508142 -4.25093e-21)
        porous   : (0 0 0)
    sum of moments:
        pressure : (-1.34036 0.146607 5.19495)
        viscous  : (0.00254071 0.0189313 -0.0332028)
        porous   : (0 0 0)

Time = 61

smoothSolver:  Solving for Ux, Initial residual = 0.00275687, Final residual = 1.23441e-05, No Iterations 8
smoothSolver:  Solving for Uy, Initial residual = 0.00122109, Final residual = 6.98879e-06, No Iterations 8
GAMG:  Solving for p, Initial residual = 0.00339183, Final residual = 1.66551e-05, No Iterations 5
time step continuity errors : sum local = 3.93162e-06, global = 1.33588e-16, cumulative = -3.62886e-17
smoothSolver:  Solving for nuTilda, Initial residual = 0.00214403, Final residual = 1.016e-05, No Iterations 8
ExecutionTime = 5.63 s  ClockTime = 6 s

Time = 62

smoothSolver:  Solving for Ux, Initial residual = 0.00272408, Final residual = 1.22004e-05, No Iterations 8
smoothSolver:  Solving for Uy, Initial residual = 0.00121923, Final residual = 6.9766e-06, No Iterations 8
GAMG:  Solving for p, Initial residual = 0.00331946, Final residual = 1.58756e-05, No Iterations 5
time step continuity errors : sum local = 3.74622e-06, global = 1.09931e-16, cumulative = 7.36427e-17
smoothSolver:  Solving for nuTilda, Initial residual = 0.00209216, Final residual = 9.89488e-06, No Iterations 8
bounding nuTilda, min: -0.000302169 max: 0.399762 average: 0.0639797
ExecutionTime = 5.72 s  ClockTime = 6 s

Time = 63

smoothSolver:  Solving for Ux, Initial residual = 0.00269232, Final residual = 1.20612e-05, No Iterations 8
smoothSolver:  Solving for Uy, Initial residual = 0.00121773, Final residual = 6.9646e-06, No Iterations 8
GAMG:  Solving for p, Initial residual = 0.00325823, Final residual = 1.6904e-05, No Iterations 5
time step continuity errors : sum local = 3.99038e-06, global = -1.01635e-17, cumulative = 6.34792e-17
smoothSolver:  Solving for nuTilda, Initial residual = 0.0020412, Final residual = 9.63366e-06, No Iterations 8
ExecutionTime = 5.8 s  ClockTime = 6 s

Time = 64

smoothSolver:  Solving for Ux, Initial residual = 0.00266324, Final residual = 1.19336e-05, No Iterations 8
smoothSolver:  Solving for Uy, Initial residual = 0.00121352, Final residual = 6.94069e-06, No Iterations 8
GAMG:  Solving for p, Initial residual = 0.00320336, Final residual = 1.77922e-05, No Iterations 5
time step continuity errors : sum local = 4.20143e-06, global = -9.13893e-18, cumulative = 5.43402e-17
smoothSolver:  Solving for nuTilda, Initial residual = 0.00199164, Final residual = 9.38171e-06, No Iterations 8
bounding nuTilda, min: -0.000304564 max: 0.399768 average: 0.0630954
ExecutionTime = 5.89 s  ClockTime = 6 s

Time = 65

smoothSolver:  Solving for Ux, Initial residual = 0.00263625, Final residual = 1.18136e-05, No Iterations 8
smoothSolver:  Solving for Uy, Initial residual = 0.00120728, Final residual = 6.9066e-06, No Iterations 8
GAMG:  Solving for p, Initial residual = 0.00315414, Final residual = 1.85723e-05, No Iterations 5
time step continuity errors : sum local = 4.38553e-06, global = 1.60397e-16, cumulative = 2.14738e-16
smoothSolver:  Solving for nuTilda, Initial residual = 0.00194351, Final residual = 9.13831e-06, No Iterations 8
ExecutionTime = 5.97 s  ClockTime = 6 s

forces wings output:
    sum of forces:
        pressure : (2.97354 27.3123 1.73876e-19)
        viscous  : (0.368954 -0.0493178 -4.43225e-21)
        porous   : (0 0 0)
    sum of moments:
        pressure : (-1.36562 0.148677 5.26676)
        viscous  : (0.00246589 0.0184477 -0.0323541)
        porous   : (0 0 0)

Time = 66

smoothSolver:  Solving for Ux, Initial residual = 0.00260948, Final residual = 1.16927e-05, No Iterations 8
smoothSolver:  Solving for Uy, Initial residual = 0.001201, Final residual = 6.87155e-06, No Iterations 8
GAMG:  Solving for p, Initial residual = 0.00310045, Final residual = 1.75004e-05, No Iterations 5
time step continuity errors : sum local = 4.13591e-06, global = 1.30146e-16, cumulative = 3.44883e-16
smoothSolver:  Solving for nuTilda, Initial residual = 0.00189654, Final residual = 8.90346e-06, No Iterations 8
bounding nuTilda, min: -0.000305687 max: 0.399776 average: 0.0622404
ExecutionTime = 6.07 s  ClockTime = 6 s

Time = 67

smoothSolver:  Solving for Ux, Initial residual = 0.00258178, Final residual = 1.15668e-05, No Iterations 8
smoothSolver:  Solving for Uy, Initial residual = 0.00119685, Final residual = 6.84435e-06, No Iterations 8
GAMG:  Solving for p, Initial residual = 0.00304644, Final residual = 1.82028e-05, No Iterations 5
time step continuity errors : sum local = 4.30458e-06, global = 1.27526e-16, cumulative = 4.72409e-16
smoothSolver:  Solving for nuTilda, Initial residual = 0.00185085, Final residual = 8.67631e-06, No Iterations 8
ExecutionTime = 6.16 s  ClockTime = 7 s

Time = 68

smoothSolver:  Solving for Ux, Initial residual = 0.00255433, Final residual = 1.14428e-05, No Iterations 8
smoothSolver:  Solving for Uy, Initial residual = 0.00119313, Final residual = 6.81891e-06, No Iterations 8
GAMG:  Solving for p, Initial residual = 0.0029917, Final residual = 1.76615e-05, No Iterations 5
time step continuity errors : sum local = 4.1759e-06, global = 4.43818e-17, cumulative = 5.16791e-16
smoothSolver:  Solving for nuTilda, Initial residual = 0.00180781, Final residual = 8.45292e-06, No Iterations 8
bounding nuTilda, min: -0.00030565 max: 0.399784 average: 0.0614131
ExecutionTime = 6.24 s  ClockTime = 7 s

Time = 69

smoothSolver:  Solving for Ux, Initial residual = 0.00252798, Final residual = 1.13229e-05, No Iterations 8
smoothSolver:  Solving for Uy, Initial residual = 0.00118964, Final residual = 6.79364e-06, No Iterations 8
GAMG:  Solving for p, Initial residual = 0.00294202, Final residual = 1.90045e-05, No Iterations 5
time step continuity errors : sum local = 4.48936e-06, global = 1.43146e-16, cumulative = 6.59937e-16
smoothSolver:  Solving for nuTilda, Initial residual = 0.00176547, Final residual = 8.23969e-06, No Iterations 8
ExecutionTime = 6.33 s  ClockTime = 7 s

Time = 70

smoothSolver:  Solving for Ux, Initial residual = 0.0025038, Final residual = 1.12109e-05, No Iterations 8
smoothSolver:  Solving for Uy, Initial residual = 0.00118461, Final residual = 6.76196e-06, No Iterations 8
GAMG:  Solving for p, Initial residual = 0.00289538, Final residual = 1.94017e-05, No Iterations 5
time step continuity errors : sum local = 4.58971e-06, global = -8.10314e-17, cumulative = 5.78906e-16
smoothSolver:  Solving for nuTilda, Initial residual = 0.00172369, Final residual = 8.0344e-06, No Iterations 8
bounding nuTilda, min: -0.000304174 max: 0.399792 average: 0.0606125
ExecutionTime = 6.41 s  ClockTime = 7 s

forces wings output:
    sum of forces:
        pressure : (3.02014 27.8559 1.77298e-19)
        viscous  : (0.359645 -0.0478579 -4.60497e-21)
        porous   : (0 0 0)
    sum of moments:
        pressure : (-1.39279 0.151007 5.3479)
        viscous  : (0.0023929 0.0179823 -0.0315371)
        porous   : (0 0 0)

Time = 71

smoothSolver:  Solving for Ux, Initial residual = 0.00248086, Final residual = 1.11024e-05, No Iterations 8
smoothSolver:  Solving for Uy, Initial residual = 0.0011791, Final residual = 6.72728e-06, No Iterations 8
GAMG:  Solving for p, Initial residual = 0.00285332, Final residual = 1.87593e-05, No Iterations 5
time step continuity errors : sum local = 4.4416e-06, global = 5.31007e-17, cumulative = 6.32006e-16
smoothSolver:  Solving for nuTilda, Initial residual = 0.00168272, Final residual = 7.83633e-06, No Iterations 8
ExecutionTime = 6.51 s  ClockTime = 7 s

Time = 72

smoothSolver:  Solving for Ux, Initial residual = 0.00245816, Final residual = 1.0994e-05, No Iterations 8
smoothSolver:  Solving for Uy, Initial residual = 0.00117395, Final residual = 6.69398e-06, No Iterations 8
GAMG:  Solving for p, Initial residual = 0.00281197, Final residual = 1.96418e-05, No Iterations 5
time step continuity errors : sum local = 4.64573e-06, global = 7.28063e-18, cumulative = 6.39287e-16
smoothSolver:  Solving for nuTilda, Initial residual = 0.00164294, Final residual = 7.64635e-06, No Iterations 8
bounding nuTilda, min: -0.000302056 max: 0.3998 average: 0.0598372
ExecutionTime = 6.6 s  ClockTime = 7 s

Time = 73

smoothSolver:  Solving for Ux, Initial residual = 0.00243603, Final residual = 1.0888e-05, No Iterations 8
smoothSolver:  Solving for Uy, Initial residual = 0.00116869, Final residual = 6.6594e-06, No Iterations 8
GAMG:  Solving for p, Initial residual = 0.00277341, Final residual = 1.96709e-05, No Iterations 5
time step continuity errors : sum local = 4.65873e-06, global = 3.014e-16, cumulative = 9.40687e-16
smoothSolver:  Solving for nuTilda, Initial residual = 0.00160436, Final residual = 7.46368e-06, No Iterations 8
ExecutionTime = 6.68 s  ClockTime = 7 s

Time = 74

smoothSolver:  Solving for Ux, Initial residual = 0.00241423, Final residual = 1.07831e-05, No Iterations 8
smoothSolver:  Solving for Uy, Initial residual = 0.0011638, Final residual = 6.62622e-06, No Iterations 8
GAMG:  Solving for p, Initial residual = 0.00273585, Final residual = 1.98395e-05, No Iterations 5
time step continuity errors : sum local = 4.70861e-06, global = -1.9148e-16, cumulative = 7.49207e-16
smoothSolver:  Solving for nuTilda, Initial residual = 0.00156751, Final residual = 7.28631e-06, No Iterations 8
bounding nuTilda, min: -0.000299454 max: 0.399809 average: 0.0590859
ExecutionTime = 6.77 s  ClockTime = 7 s

Time = 75

smoothSolver:  Solving for Ux, Initial residual = 0.00239324, Final residual = 1.06806e-05, No Iterations 8
smoothSolver:  Solving for Uy, Initial residual = 0.00115919, Final residual = 6.5931e-06, No Iterations 8
GAMG:  Solving for p, Initial residual = 0.00270199, Final residual = 1.90818e-05, No Iterations 5
time step continuity errors : sum local = 4.52675e-06, global = -2.3623e-16, cumulative = 5.12976e-16
smoothSolver:  Solving for nuTilda, Initial residual = 0.00153147, Final residual = 7.1122e-06, No Iterations 8
ExecutionTime = 6.85 s  ClockTime = 7 s

forces wings output:
    sum of forces:
        pressure : (3.06328 28.4237 1.81075e-19)
        viscous  : (0.350642 -0.046447 -4.7827e-21)
        porous   : (0 0 0)
    sum of moments:
        pressure : (-1.42118 0.153164 5.42224)
        viscous  : (0.00232235 0.0175321 -0.0307465)
        porous   : (0 0 0)

Time = 76

smoothSolver:  Solving for Ux, Initial residual = 0.00237281, Final residual = 1.058e-05, No Iterations 8
smoothSolver:  Solving for Uy, Initial residual = 0.00115454, Final residual = 6.5597e-06, No Iterations 8
GAMG:  Solving for p, Initial residual = 0.00267537, Final residual = 2.04372e-05, No Iterations 5
time step continuity errors : sum local = 4.84158e-06, global = 2.1399e-16, cumulative = 7.26967e-16
smoothSolver:  Solving for nuTilda, Initial residual = 0.00149631, Final residual = 6.94157e-06, No Iterations 8
bounding nuTilda, min: -0.000328473 max: 0.399818 average: 0.0583578
ExecutionTime = 6.94 s  ClockTime = 7 s

Time = 77

smoothSolver:  Solving for Ux, Initial residual = 0.00235345, Final residual = 1.0485e-05, No Iterations 8
smoothSolver:  Solving for Uy, Initial residual = 0.00114861, Final residual = 6.52059e-06, No Iterations 8
GAMG:  Solving for p, Initial residual = 0.00264376, Final residual = 2.05175e-05, No Iterations 5
time step continuity errors : sum local = 4.86235e-06, global = -1.70586e-16, cumulative = 5.56381e-16
smoothSolver:  Solving for nuTilda, Initial residual = 0.00146218, Final residual = 6.77649e-06, No Iterations 8
ExecutionTime = 7.03 s  ClockTime = 7 s

Time = 78

smoothSolver:  Solving for Ux, Initial residual = 0.00233452, Final residual = 1.03916e-05, No Iterations 8
smoothSolver:  Solving for Uy, Initial residual = 0.0011425, Final residual = 6.48047e-06, No Iterations 8
GAMG:  Solving for p, Initial residual = 0.00261448, Final residual = 2.05677e-05, No Iterations 5
time step continuity errors : sum local = 4.88257e-06, global = 1.84868e-17, cumulative = 5.74868e-16
smoothSolver:  Solving for nuTilda, Initial residual = 0.00142941, Final residual = 6.61699e-06, No Iterations 8
bounding nuTilda, min: -0.000301455 max: 0.399828 average: 0.0576518
ExecutionTime = 7.12 s  ClockTime = 8 s

Time = 79

smoothSolver:  Solving for Ux, Initial residual = 0.00231564, Final residual = 1.02986e-05, No Iterations 8
smoothSolver:  Solving for Uy, Initial residual = 0.00113683, Final residual = 6.44118e-06, No Iterations 8
GAMG:  Solving for p, Initial residual = 0.00259203, Final residual = 2.05899e-05, No Iterations 5
time step continuity errors : sum local = 4.90024e-06, global = 3.70133e-16, cumulative = 9.45001e-16
smoothSolver:  Solving for nuTilda, Initial residual = 0.0013982, Final residual = 6.46355e-06, No Iterations 8
ExecutionTime = 7.2 s  ClockTime = 8 s

Time = 80

smoothSolver:  Solving for Ux, Initial residual = 0.00229691, Final residual = 1.02067e-05, No Iterations 8
smoothSolver:  Solving for Uy, Initial residual = 0.00113135, Final residual = 6.40272e-06, No Iterations 8
GAMG:  Solving for p, Initial residual = 0.00256817, Final residual = 1.95703e-05, No Iterations 5
time step continuity errors : sum local = 4.65563e-06, global = -1.29681e-16, cumulative = 8.1532e-16
smoothSolver:  Solving for nuTilda, Initial residual = 0.00136774, Final residual = 6.31356e-06, No Iterations 8
bounding nuTilda, min: -0.000291118 max: 0.399838 average: 0.0569671
ExecutionTime = 7.29 s  ClockTime = 8 s

forces wings output:
    sum of forces:
        pressure : (3.10549 29.0223 1.84494e-19)
        viscous  : (0.341871 -0.0450879 -4.94774e-21)
        porous   : (0 0 0)
    sum of moments:
        pressure : (-1.45112 0.155275 5.49443)
        viscous  : (0.00225439 0.0170936 -0.0299783)
        porous   : (0 0 0)

Time = 81

smoothSolver:  Solving for Ux, Initial residual = 0.0022784, Final residual = 1.01161e-05, No Iterations 8
smoothSolver:  Solving for Uy, Initial residual = 0.00112629, Final residual = 6.36512e-06, No Iterations 8
GAMG:  Solving for p, Initial residual = 0.00254808, Final residual = 2.09492e-05, No Iterations 5
time step continuity errors : sum local = 4.97903e-06, global = 1.89185e-16, cumulative = 1.00451e-15
smoothSolver:  Solving for nuTilda, Initial residual = 0.00133824, Final residual = 6.16896e-06, No Iterations 8
ExecutionTime = 7.38 s  ClockTime = 8 s

Time = 82

smoothSolver:  Solving for Ux, Initial residual = 0.00226102, Final residual = 1.0031e-05, No Iterations 8
smoothSolver:  Solving for Uy, Initial residual = 0.00111981, Final residual = 6.32224e-06, No Iterations 8
GAMG:  Solving for p, Initial residual = 0.00253517, Final residual = 2.11329e-05, No Iterations 5
time step continuity errors : sum local = 5.02499e-06, global = -1.76706e-16, cumulative = 8.27799e-16
smoothSolver:  Solving for nuTilda, Initial residual = 0.00130976, Final residual = 6.02886e-06, No Iterations 8
bounding nuTilda, min: -0.000317908 max: 0.399848 average: 0.0563026
ExecutionTime = 7.46 s  ClockTime = 8 s

Time = 83

smoothSolver:  Solving for Ux, Initial residual = 0.00224404, Final residual = 9.94754e-06, No Iterations 8
smoothSolver:  Solving for Uy, Initial residual = 0.00111321, Final residual = 6.27841e-06, No Iterations 8
GAMG:  Solving for p, Initial residual = 0.00251496, Final residual = 2.11169e-05, No Iterations 5
time step continuity errors : sum local = 5.03009e-06, global = 7.04754e-17, cumulative = 8.98275e-16
smoothSolver:  Solving for nuTilda, Initial residual = 0.00128203, Final residual = 5.89144e-06, No Iterations 8
ExecutionTime = 7.55 s  ClockTime = 8 s

Time = 84

smoothSolver:  Solving for Ux, Initial residual = 0.00222719, Final residual = 9.86465e-06, No Iterations 8
smoothSolver:  Solving for Uy, Initial residual = 0.00110679, Final residual = 6.2352e-06, No Iterations 8
GAMG:  Solving for p, Initial residual = 0.00249405, Final residual = 2.02048e-05, No Iterations 5
time step continuity errors : sum local = 4.81818e-06, global = 3.08177e-16, cumulative = 1.20645e-15
smoothSolver:  Solving for nuTilda, Initial residual = 0.00125467, Final residual = 5.75932e-06, No Iterations 8
bounding nuTilda, min: -0.00029118 max: 0.399859 average: 0.0556577
ExecutionTime = 7.64 s  ClockTime = 8 s

Time = 85

smoothSolver:  Solving for Ux, Initial residual = 0.00221018, Final residual = 9.78176e-06, No Iterations 8
smoothSolver:  Solving for Uy, Initial residual = 0.00110098, Final residual = 6.19373e-06, No Iterations 8
GAMG:  Solving for p, Initial residual = 0.00247901, Final residual = 2.12071e-05, No Iterations 5
time step continuity errors : sum local = 5.05124e-06, global = -1.00677e-16, cumulative = 1.10577e-15
smoothSolver:  Solving for nuTilda, Initial residual = 0.00122812, Final residual = 5.63146e-06, No Iterations 8
ExecutionTime = 7.72 s  ClockTime = 8 s

forces wings output:
    sum of forces:
        pressure : (3.14808 29.6484 1.87838e-19)
        viscous  : (0.333361 -0.0438006 -5.10763e-21)
        porous   : (0 0 0)
    sum of moments:
        pressure : (-1.48242 0.157404 5.56702)
        viscous  : (0.00219003 0.016668 -0.0292326)
        porous   : (0 0 0)

Time = 86

smoothSolver:  Solving for Ux, Initial residual = 0.00219386, Final residual = 9.70267e-06, No Iterations 8
smoothSolver:  Solving for Uy, Initial residual = 0.00109422, Final residual = 6.14875e-06, No Iterations 8
GAMG:  Solving for p, Initial residual = 0.00246356, Final residual = 2.12573e-05, No Iterations 5
time step continuity errors : sum local = 5.07131e-06, global = 5.17184e-17, cumulative = 1.15749e-15
smoothSolver:  Solving for nuTilda, Initial residual = 0.00120236, Final residual = 5.50638e-06, No Iterations 8
bounding nuTilda, min: -0.000281215 max: 0.39987 average: 0.0550314
ExecutionTime = 7.81 s  ClockTime = 8 s

Time = 87

smoothSolver:  Solving for Ux, Initial residual = 0.00217787, Final residual = 9.62505e-06, No Iterations 8
smoothSolver:  Solving for Uy, Initial residual = 0.00108742, Final residual = 6.10292e-06, No Iterations 8
GAMG:  Solving for p, Initial residual = 0.00245124, Final residual = 2.036e-05, No Iterations 5
time step continuity errors : sum local = 4.86415e-06, global = -3.27048e-16, cumulative = 8.30445e-16
smoothSolver:  Solving for nuTilda, Initial residual = 0.00117755, Final residual = 5.38591e-06, No Iterations 8
ExecutionTime = 7.9 s  ClockTime = 8 s

Time = 88

smoothSolver:  Solving for Ux, Initial residual = 0.00216202, Final residual = 9.54734e-06, No Iterations 8
smoothSolver:  Solving for Uy, Initial residual = 0.00108083, Final residual = 6.058e-06, No Iterations 8
GAMG:  Solving for p, Initial residual = 0.0024377, Final residual = 2.13022e-05, No Iterations 5
time step continuity errors : sum local = 5.08406e-06, global = 1.0845e-16, cumulative = 9.38895e-16
smoothSolver:  Solving for nuTilda, Initial residual = 0.00115326, Final residual = 5.26957e-06, No Iterations 8
bounding nuTilda, min: -0.000274756 max: 0.399881 average: 0.054423
ExecutionTime = 7.98 s  ClockTime = 8 s

Time = 89

smoothSolver:  Solving for Ux, Initial residual = 0.00214677, Final residual = 9.47298e-06, No Iterations 8
smoothSolver:  Solving for Uy, Initial residual = 0.00107362, Final residual = 6.01008e-06, No Iterations 8
GAMG:  Solving for p, Initial residual = 0.00242699, Final residual = 2.12985e-05, No Iterations 5
time step continuity errors : sum local = 5.09362e-06, global = 1.72903e-16, cumulative = 1.1118e-15
smoothSolver:  Solving for nuTilda, Initial residual = 0.0011298, Final residual = 5.15656e-06, No Iterations 8
ExecutionTime = 8.08 s  ClockTime = 8 s

Time = 90

smoothSolver:  Solving for Ux, Initial residual = 0.00213164, Final residual = 9.39981e-06, No Iterations 8
smoothSolver:  Solving for Uy, Initial residual = 0.00106639, Final residual = 5.9621e-06, No Iterations 8
GAMG:  Solving for p, Initial residual = 0.00242209, Final residual = 2.02625e-05, No Iterations 5
time step continuity errors : sum local = 4.85093e-06, global = -1.30108e-16, cumulative = 9.8169e-16
smoothSolver:  Solving for nuTilda, Initial residual = 0.00110706, Final residual = 5.0468e-06, No Iterations 8
bounding nuTilda, min: -0.000305419 max: 0.399892 average: 0.053832
ExecutionTime = 8.16 s  ClockTime = 9 s

forces wings output:
    sum of forces:
        pressure : (3.18833 30.2813 1.91615e-19)
        viscous  : (0.325356 -0.0426371 -5.27839e-21)
        porous   : (0 0 0)
    sum of moments:
        pressure : (-1.51407 0.159417 5.63512)
        viscous  : (0.00213186 0.0162678 -0.0285324)
        porous   : (0 0 0)

Time = 91

smoothSolver:  Solving for Ux, Initial residual = 0.00211638, Final residual = 9.32674e-06, No Iterations 8
smoothSolver:  Solving for Uy, Initial residual = 0.00105958, Final residual = 5.91556e-06, No Iterations 8
GAMG:  Solving for p, Initial residual = 0.0024064, Final residual = 2.12394e-05, No Iterations 5
time step continuity errors : sum local = 5.08471e-06, global = -9.3249e-17, cumulative = 8.88441e-16
smoothSolver:  Solving for nuTilda, Initial residual = 0.00108512, Final residual = 4.94023e-06, No Iterations 8
ExecutionTime = 8.25 s  ClockTime = 9 s

Time = 92

smoothSolver:  Solving for Ux, Initial residual = 0.00210172, Final residual = 9.25722e-06, No Iterations 8
smoothSolver:  Solving for Uy, Initial residual = 0.00105176, Final residual = 5.86514e-06, No Iterations 8
GAMG:  Solving for p, Initial residual = 0.00238865, Final residual = 2.03521e-05, No Iterations 5
time step continuity errors : sum local = 4.87819e-06, global = -1.74301e-16, cumulative = 7.1414e-16
smoothSolver:  Solving for nuTilda, Initial residual = 0.00106407, Final residual = 4.83715e-06, No Iterations 8
bounding nuTilda, min: -0.000281025 max: 0.399904 average: 0.0532575
ExecutionTime = 8.34 s  ClockTime = 9 s

Time = 93

smoothSolver:  Solving for Ux, Initial residual = 0.00208708, Final residual = 9.1879e-06, No Iterations 8
smoothSolver:  Solving for Uy, Initial residual = 0.00104427, Final residual = 5.81559e-06, No Iterations 8
GAMG:  Solving for p, Initial residual = 0.00237588, Final residual = 2.1045e-05, No Iterations 5
time step continuity errors : sum local = 5.04118e-06, global = 3.19319e-17, cumulative = 7.46072e-16
smoothSolver:  Solving for nuTilda, Initial residual = 0.00104352, Final residual = 4.73607e-06, No Iterations 8
ExecutionTime = 8.42 s  ClockTime = 9 s

Time = 94

smoothSolver:  Solving for Ux, Initial residual = 0.00207272, Final residual = 9.12016e-06, No Iterations 8
smoothSolver:  Solving for Uy, Initial residual = 0.0010362, Final residual = 5.76382e-06, No Iterations 8
GAMG:  Solving for p, Initial residual = 0.00236233, Final residual = 2.09382e-05, No Iterations 5
time step continuity errors : sum local = 5.03161e-06, global = 1.44968e-17, cumulative = 7.60569e-16
smoothSolver:  Solving for nuTilda, Initial residual = 0.00102345, Final residual = 4.63629e-06, No Iterations 8
bounding nuTilda, min: -0.000273026 max: 0.399916 average: 0.0526991
ExecutionTime = 8.52 s  ClockTime = 9 s

Time = 95

smoothSolver:  Solving for Ux, Initial residual = 0.00205836, Final residual = 9.05223e-06, No Iterations 8
smoothSolver:  Solving for Uy, Initial residual = 0.00102834, Final residual = 5.71245e-06, No Iterations 8
GAMG:  Solving for p, Initial residual = 0.00234564, Final residual = 1.94801e-05, No Iterations 5
time step continuity errors : sum local = 4.67771e-06, global = -5.45161e-17, cumulative = 7.06053e-16
smoothSolver:  Solving for nuTilda, Initial residual = 0.00100366, Final residual = 4.53812e-06, No Iterations 8
bounding nuTilda, min: -0.00015596 max: 0.399923 average: 0.0524257
ExecutionTime = 8.6 s  ClockTime = 9 s

forces wings output:
    sum of forces:
        pressure : (3.22582 30.9206 1.95387e-19)
        viscous  : (0.317887 -0.0416508 -5.43711e-21)
        porous   : (0 0 0)
    sum of moments:
        pressure : (-1.54603 0.161291 5.69794)
        viscous  : (0.00208254 0.0158944 -0.0278882)
        porous   : (0 0 0)

Time = 96

smoothSolver:  Solving for Ux, Initial residual = 0.00204376, Final residual = 8.98343e-06, No Iterations 8
smoothSolver:  Solving for Uy, Initial residual = 0.00102099, Final residual = 5.66286e-06, No Iterations 8
GAMG:  Solving for p, Initial residual = 0.00233417, Final residual = 1.974e-05, No Iterations 5
time step continuity errors : sum local = 4.74575e-06, global = -2.43103e-16, cumulative = 4.62949e-16
smoothSolver:  Solving for nuTilda, Initial residual = 0.000984283, Final residual = 4.44217e-06, No Iterations 8
bounding nuTilda, min: -0.000268676 max: 0.399929 average: 0.0521562
ExecutionTime = 8.69 s  ClockTime = 9 s

Time = 97

smoothSolver:  Solving for Ux, Initial residual = 0.00202965, Final residual = 8.9177e-06, No Iterations 8
smoothSolver:  Solving for Uy, Initial residual = 0.00101267, Final residual = 5.60965e-06, No Iterations 8
GAMG:  Solving for p, Initial residual = 0.00232211, Final residual = 2.07331e-05, No Iterations 5
time step continuity errors : sum local = 4.97963e-06, global = 2.62934e-17, cumulative = 4.89243e-16
smoothSolver:  Solving for nuTilda, Initial residual = 0.000965477, Final residual = 4.34866e-06, No Iterations 8
ExecutionTime = 8.77 s  ClockTime = 9 s

Time = 98

smoothSolver:  Solving for Ux, Initial residual = 0.00201589, Final residual = 8.85359e-06, No Iterations 8
smoothSolver:  Solving for Uy, Initial residual = 0.00100356, Final residual = 5.55363e-06, No Iterations 8
GAMG:  Solving for p, Initial residual = 0.00230804, Final residual = 2.05272e-05, No Iterations 5
time step continuity errors : sum local = 4.94611e-06, global = -2.09514e-16, cumulative = 2.79729e-16
smoothSolver:  Solving for nuTilda, Initial residual = 0.000947159, Final residual = 4.25714e-06, No Iterations 8
bounding nuTilda, min: -0.000266507 max: 0.399941 average: 0.0516283
ExecutionTime = 8.87 s  ClockTime = 9 s

Time = 99

smoothSolver:  Solving for Ux, Initial residual = 0.00200204, Final residual = 8.78853e-06, No Iterations 8
smoothSolver:  Solving for Uy, Initial residual = 0.000994933, Final residual = 5.49887e-06, No Iterations 8
GAMG:  Solving for p, Initial residual = 0.00229063, Final residual = 1.88705e-05, No Iterations 5
time step continuity errors : sum local = 4.54297e-06, global = 2.47424e-16, cumulative = 5.27153e-16
smoothSolver:  Solving for nuTilda, Initial residual = 0.000929233, Final residual = 4.16777e-06, No Iterations 8
ExecutionTime = 8.96 s  ClockTime = 9 s

Time = 100

smoothSolver:  Solving for Ux, Initial residual = 0.0019877, Final residual = 8.72121e-06, No Iterations 8
smoothSolver:  Solving for Uy, Initial residual = 0.000987267, Final residual = 5.44736e-06, No Iterations 8
GAMG:  Solving for p, Initial residual = 0.00227971, Final residual = 1.88737e-05, No Iterations 5
time step continuity errors : sum local = 4.54938e-06, global = 7.6365e-17, cumulative = 6.03518e-16
smoothSolver:  Solving for nuTilda, Initial residual = 0.000911616, Final residual = 4.08075e-06, No Iterations 8
bounding nuTilda, min: -0.000265787 max: 0.399954 average: 0.0511149
ExecutionTime = 9.05 s  ClockTime = 9 s

forces wings output:
    sum of forces:
        pressure : (3.25988 31.5556 1.99661e-19)
        viscous  : (0.310592 -0.0408059 -5.60933e-21)
        porous   : (0 0 0)
    sum of moments:
        pressure : (-1.57778 0.162994 5.75436)
        viscous  : (0.00204029 0.0155296 -0.0272659)
        porous   : (0 0 0)

Time = 101

smoothSolver:  Solving for Ux, Initial residual = 0.00197369, Final residual = 8.65621e-06, No Iterations 8
smoothSolver:  Solving for Uy, Initial residual = 0.000978847, Final residual = 5.39348e-06, No Iterations 8
GAMG:  Solving for p, Initial residual = 0.00226125, Final residual = 1.93681e-05, No Iterations 5
time step continuity errors : sum local = 4.67046e-06, global = -1.51379e-16, cumulative = 4.5214e-16
smoothSolver:  Solving for nuTilda, Initial residual = 0.000894551, Final residual = 3.99563e-06, No Iterations 8
bounding nuTilda, min: -6.92869e-05 max: 0.39996 average: 0.0508635
ExecutionTime = 9.14 s  ClockTime = 10 s

Time = 102

smoothSolver:  Solving for Ux, Initial residual = 0.00196019, Final residual = 8.59429e-06, No Iterations 8
smoothSolver:  Solving for Uy, Initial residual = 0.000969372, Final residual = 5.33556e-06, No Iterations 8
GAMG:  Solving for p, Initial residual = 0.00224091, Final residual = 1.96993e-05, No Iterations 5
time step continuity errors : sum local = 4.7508e-06, global = -5.65438e-17, cumulative = 3.95596e-16
smoothSolver:  Solving for nuTilda, Initial residual = 0.00087744, Final residual = 3.91359e-06, No Iterations 8
bounding nuTilda, min: -0.000265257 max: 0.399967 average: 0.0506155
ExecutionTime = 9.22 s  ClockTime = 10 s

Time = 103

smoothSolver:  Solving for Ux, Initial residual = 0.00194677, Final residual = 8.53221e-06, No Iterations 8
smoothSolver:  Solving for Uy, Initial residual = 0.000959689, Final residual = 5.27653e-06, No Iterations 8
GAMG:  Solving for p, Initial residual = 0.00223149, Final residual = 1.84344e-05, No Iterations 5
time step continuity errors : sum local = 4.45274e-06, global = 1.50966e-17, cumulative = 4.10692e-16
smoothSolver:  Solving for nuTilda, Initial residual = 0.000860703, Final residual = 3.83396e-06, No Iterations 8
ExecutionTime = 9.31 s  ClockTime = 10 s

Time = 104

smoothSolver:  Solving for Ux, Initial residual = 0.00193274, Final residual = 8.46632e-06, No Iterations 8
smoothSolver:  Solving for Uy, Initial residual = 0.000951233, Final residual = 5.22213e-06, No Iterations 8
GAMG:  Solving for p, Initial residual = 0.00220847, Final residual = 1.82444e-05, No Iterations 5
time step continuity errors : sum local = 4.40981e-06, global = -1.14003e-16, cumulative = 2.96689e-16
smoothSolver:  Solving for nuTilda, Initial residual = 0.000844373, Final residual = 3.75655e-06, No Iterations 8
bounding nuTilda, min: -0.000265056 max: 0.399979 average: 0.0501296
ExecutionTime = 9.4 s  ClockTime = 10 s

Time = 105

smoothSolver:  Solving for Ux, Initial residual = 0.00191881, Final residual = 8.40118e-06, No Iterations 8
smoothSolver:  Solving for Uy, Initial residual = 0.000942476, Final residual = 5.16675e-06, No Iterations 8
GAMG:  Solving for p, Initial residual = 0.0021859, Final residual = 1.8198e-05, No Iterations 5
time step continuity errors : sum local = 4.40174e-06, global = 6.01277e-18, cumulative = 3.02702e-16
smoothSolver:  Solving for nuTilda, Initial residual = 0.000828495, Final residual = 3.68116e-06, No Iterations 8
bounding nuTilda, min: -4.68517e-05 max: 0.399986 average: 0.0498916
ExecutionTime = 9.48 s  ClockTime = 10 s

forces wings output:
    sum of forces:
        pressure : (3.28977 32.1827 2.04036e-19)
        viscous  : (0.303313 -0.0400497 -5.79368e-21)
        porous   : (0 0 0)
    sum of moments:
        pressure : (-1.60914 0.164488 5.80302)
        viscous  : (0.00200248 0.0151657 -0.026652)
        porous   : (0 0 0)

Time = 106

smoothSolver:  Solving for Ux, Initial residual = 0.00190513, Final residual = 8.33769e-06, No Iterations 8
smoothSolver:  Solving for Uy, Initial residual = 0.000932964, Final residual = 5.10877e-06, No Iterations 8
GAMG:  Solving for p, Initial residual = 0.00216621, Final residual = 1.81707e-05, No Iterations 5
time step continuity errors : sum local = 4.39698e-06, global = 1.8571e-16, cumulative = 4.88413e-16
smoothSolver:  Solving for nuTilda, Initial residual = 0.000812912, Final residual = 3.60796e-06, No Iterations 8
bounding nuTilda, min: -0.000264879 max: 0.399992 average: 0.0496568
ExecutionTime = 9.58 s  ClockTime = 10 s

Time = 107

smoothSolver:  Solving for Ux, Initial residual = 0.00189154, Final residual = 8.27436e-06, No Iterations 8
smoothSolver:  Solving for Uy, Initial residual = 0.00092308, Final residual = 5.04934e-06, No Iterations 8
GAMG:  Solving for p, Initial residual = 0.00215952, Final residual = 1.84611e-05, No Iterations 5
time step continuity errors : sum local = 4.47677e-06, global = -1.71633e-16, cumulative = 3.1678e-16
smoothSolver:  Solving for nuTilda, Initial residual = 0.00079779, Final residual = 3.53689e-06, No Iterations 8
ExecutionTime = 9.66 s  ClockTime = 10 s

Time = 108

smoothSolver:  Solving for Ux, Initial residual = 0.00187777, Final residual = 8.20938e-06, No Iterations 8
smoothSolver:  Solving for Uy, Initial residual = 0.000913228, Final residual = 4.99028e-06, No Iterations 8
GAMG:  Solving for p, Initial residual = 0.00213673, Final residual = 1.69152e-05, No Iterations 5
time step continuity errors : sum local = 4.09549e-06, global = 8.60569e-17, cumulative = 4.02837e-16
smoothSolver:  Solving for nuTilda, Initial residual = 0.000783142, Final residual = 3.46775e-06, No Iterations 8
bounding nuTilda, min: -0.000264142 max: 0.400005 average: 0.0491965
ExecutionTime = 9.75 s  ClockTime = 10 s

Time = 109

smoothSolver:  Solving for Ux, Initial residual = 0.00186357, Final residual = 8.14178e-06, No Iterations 8
smoothSolver:  Solving for Uy, Initial residual = 0.000904253, Final residual = 4.93442e-06, No Iterations 8
GAMG:  Solving for p, Initial residual = 0.0021084, Final residual = 1.66331e-05, No Iterations 5
time step continuity errors : sum local = 4.03021e-06, global = -6.42663e-17, cumulative = 3.38571e-16
smoothSolver:  Solving for nuTilda, Initial residual = 0.000768991, Final residual = 3.40062e-06, No Iterations 8
ExecutionTime = 9.83 s  ClockTime = 10 s

Time = 110

smoothSolver:  Solving for Ux, Initial residual = 0.00184946, Final residual = 8.07573e-06, No Iterations 8
smoothSolver:  Solving for Uy, Initial residual = 0.000894582, Final residual = 4.87628e-06, No Iterations 8
GAMG:  Solving for p, Initial residual = 0.00208283, Final residual = 1.65212e-05, No Iterations 5
time step continuity errors : sum local = 4.00837e-06, global = -4.32287e-17, cumulative = 2.95342e-16
smoothSolver:  Solving for nuTilda, Initial residual = 0.000755061, Final residual = 3.33459e-06, No Iterations 8
bounding nuTilda, min: -0.000262312 max: 0.400017 average: 0.0487485
ExecutionTime = 9.92 s  ClockTime = 10 s

forces wings output:
    sum of forces:
        pressure : (3.31442 32.7827 2.08538e-19)
        viscous  : (0.296206 -0.039378 -5.97803e-21)
        porous   : (0 0 0)
    sum of moments:
        pressure : (-1.63913 0.165721 5.84214)
        viscous  : (0.0019689 0.0148103 -0.0260542)
        porous   : (0 0 0)

Time = 111

smoothSolver:  Solving for Ux, Initial residual = 0.00183555, Final residual = 8.01093e-06, No Iterations 8
smoothSolver:  Solving for Uy, Initial residual = 0.000884165, Final residual = 4.81558e-06, No Iterations 8
GAMG:  Solving for p, Initial residual = 0.00205765, Final residual = 1.65213e-05, No Iterations 5
time step continuity errors : sum local = 4.01254e-06, global = 2.50631e-16, cumulative = 5.45973e-16
smoothSolver:  Solving for nuTilda, Initial residual = 0.00074131, Final residual = 3.26943e-06, No Iterations 8
ExecutionTime = 10.01 s  ClockTime = 10 s

Time = 112

smoothSolver:  Solving for Ux, Initial residual = 0.0018217, Final residual = 7.94543e-06, No Iterations 8
smoothSolver:  Solving for Uy, Initial residual = 0.000873634, Final residual = 4.7545e-06, No Iterations 8
GAMG:  Solving for p, Initial residual = 0.00203405, Final residual = 1.64644e-05, No Iterations 5
time step continuity errors : sum local = 4.0009e-06, global = 2.17187e-16, cumulative = 7.6316e-16
smoothSolver:  Solving for nuTilda, Initial residual = 0.00072787, Final residual = 3.20542e-06, No Iterations 8
bounding nuTilda, min: -0.000258658 max: 0.400029 average: 0.0483123
ExecutionTime = 10.1 s  ClockTime = 10 s

Time = 113

smoothSolver:  Solving for Ux, Initial residual = 0.00180761, Final residual = 7.87802e-06, No Iterations 8
smoothSolver:  Solving for Uy, Initial residual = 0.000863389, Final residual = 4.69457e-06, No Iterations 8
GAMG:  Solving for p, Initial residual = 0.00200619, Final residual = 1.61744e-05, No Iterations 5
time step continuity errors : sum local = 3.93275e-06, global = 3.02734e-17, cumulative = 7.93433e-16
smoothSolver:  Solving for nuTilda, Initial residual = 0.000714986, Final residual = 3.14254e-06, No Iterations 8
ExecutionTime = 10.19 s  ClockTime = 11 s

Time = 114

smoothSolver:  Solving for Ux, Initial residual = 0.00179326, Final residual = 7.80954e-06, No Iterations 8
smoothSolver:  Solving for Uy, Initial residual = 0.000853468, Final residual = 4.63605e-06, No Iterations 8
GAMG:  Solving for p, Initial residual = 0.00197916, Final residual = 1.58938e-05, No Iterations 5
time step continuity errors : sum local = 3.86686e-06, global = 1.51982e-16, cumulative = 9.45415e-16
smoothSolver:  Solving for nuTilda, Initial residual = 0.000702256, Final residual = 3.08099e-06, No Iterations 8
bounding nuTilda, min: -0.000253326 max: 0.400041 average: 0.0478878
ExecutionTime = 10.28 s  ClockTime = 11 s

Time = 115

smoothSolver:  Solving for Ux, Initial residual = 0.00177882, Final residual = 7.741e-06, No Iterations 8
smoothSolver:  Solving for Uy, Initial residual = 0.000843405, Final residual = 4.57726e-06, No Iterations 8
GAMG:  Solving for p, Initial residual = 0.00194942, Final residual = 1.57175e-05, No Iterations 5
time step continuity errors : sum local = 3.82606e-06, global = 8.05783e-17, cumulative = 1.02599e-15
smoothSolver:  Solving for nuTilda, Initial residual = 0.00068971, Final residual = 3.02059e-06, No Iterations 8
ExecutionTime = 10.36 s  ClockTime = 11 s

forces wings output:
    sum of forces:
        pressure : (3.33344 33.3484 2.13242e-19)
        viscous  : (0.289343 -0.038794 -6.17072e-21)
        porous   : (0 0 0)
    sum of moments:
        pressure : (-1.66742 0.166672 5.87108)
        viscous  : (0.0019397 0.0144672 -0.0254807)
        porous   : (0 0 0)

Time = 116

smoothSolver:  Solving for Ux, Initial residual = 0.00176445, Final residual = 7.67279e-06, No Iterations 8
smoothSolver:  Solving for Uy, Initial residual = 0.000832998, Final residual = 4.51723e-06, No Iterations 8
GAMG:  Solving for p, Initial residual = 0.00192326, Final residual = 1.56597e-05, No Iterations 5
time step continuity errors : sum local = 3.81433e-06, global = -2.48237e-16, cumulative = 7.77756e-16
smoothSolver:  Solving for nuTilda, Initial residual = 0.000677561, Final residual = 2.96116e-06, No Iterations 8
bounding nuTilda, min: -0.000246251 max: 0.400053 average: 0.0474746
ExecutionTime = 10.45 s  ClockTime = 11 s

Time = 117

smoothSolver:  Solving for Ux, Initial residual = 0.00175004, Final residual = 7.60472e-06, No Iterations 8
[...]

forces wings output:
    sum of forces:
        pressure : (2.29549 32.1561 2.18411e-19)
        viscous  : (0.108528 -0.0180591 -1.03957e-20)
        porous   : (0 0 0)
    sum of moments:
        pressure : (-1.6078 0.114775 3.93146)
        viscous  : (0.000902954 0.00542638 -0.0100211)
        porous   : (0 0 0)

Time = 4971

smoothSolver:  Solving for Ux, Initial residual = 5.71333e-08, Final residual = 7.17046e-09, No Iterations 2
smoothSolver:  Solving for Uy, Initial residual = 1.48698e-07, Final residual = 3.6719e-09, No Iterations 4
GAMG:  Solving for p, Initial residual = 4.26801e-06, Final residual = 4.73519e-07, No Iterations 1
time step continuity errors : sum local = 1.13005e-07, global = 1.30502e-16, cumulative = 4.61319e-14
smoothSolver:  Solving for nuTilda, Initial residual = 1.06279e-08, Final residual = 9.50478e-10, No Iterations 2
ExecutionTime = 373.36 s  ClockTime = 374 s

Time = 4972

smoothSolver:  Solving for Ux, Initial residual = 5.78756e-08, Final residual = 7.05633e-09, No Iterations 2
smoothSolver:  Solving for Uy, Initial residual = 1.55441e-07, Final residual = 3.88945e-09, No Iterations 4
GAMG:  Solving for p, Initial residual = 4.21176e-06, Final residual = 4.70531e-07, No Iterations 1
time step continuity errors : sum local = 1.12489e-07, global = 1.17824e-16, cumulative = 4.62498e-14
smoothSolver:  Solving for nuTilda, Initial residual = 1.72709e-08, Final residual = 8.7549e-10, No Iterations 2
ExecutionTime = 373.42 s  ClockTime = 374 s

Time = 4973

smoothSolver:  Solving for Ux, Initial residual = 5.71179e-08, Final residual = 7.16763e-09, No Iterations 2
smoothSolver:  Solving for Uy, Initial residual = 1.48728e-07, Final residual = 3.67379e-09, No Iterations 4
GAMG:  Solving for p, Initial residual = 4.26805e-06, Final residual = 4.73549e-07, No Iterations 1
time step continuity errors : sum local = 1.13011e-07, global = 2.35161e-16, cumulative = 4.64849e-14
smoothSolver:  Solving for nuTilda, Initial residual = 1.06197e-08, Final residual = 9.48309e-10, No Iterations 2
ExecutionTime = 373.48 s  ClockTime = 374 s

Time = 4974

smoothSolver:  Solving for Ux, Initial residual = 5.78546e-08, Final residual = 7.05179e-09, No Iterations 2
smoothSolver:  Solving for Uy, Initial residual = 1.55464e-07, Final residual = 3.89157e-09, No Iterations 4
GAMG:  Solving for p, Initial residual = 4.21184e-06, Final residual = 4.70534e-07, No Iterations 1
time step continuity errors : sum local = 1.12488e-07, global = -1.93596e-16, cumulative = 4.62913e-14
smoothSolver:  Solving for nuTilda, Initial residual = 1.72625e-08, Final residual = 8.7329e-10, No Iterations 2
ExecutionTime = 373.55 s  ClockTime = 374 s

Time = 4975

smoothSolver:  Solving for Ux, Initial residual = 5.71026e-08, Final residual = 7.16487e-09, No Iterations 2
smoothSolver:  Solving for Uy, Initial residual = 1.48757e-07, Final residual = 3.67564e-09, No Iterations 4
GAMG:  Solving for p, Initial residual = 4.2681e-06, Final residual = 4.73577e-07, No Iterations 1
time step continuity errors : sum local = 1.13016e-07, global = 1.03387e-16, cumulative = 4.63947e-14
smoothSolver:  Solving for nuTilda, Initial residual = 1.06114e-08, Final residual = 9.46138e-10, No Iterations 2
ExecutionTime = 373.61 s  ClockTime = 374 s

forces wings output:
    sum of forces:
        pressure : (2.29551 32.1559 2.18418e-19)
        viscous  : (0.108521 -0.0180649 -1.04198e-20)
        porous   : (0 0 0)
    sum of moments:
        pressure : (-1.60779 0.114775 3.93149)
        viscous  : (0.000903246 0.00542605 -0.0100195)
        porous   : (0 0 0)

Time = 4976

smoothSolver:  Solving for Ux, Initial residual = 5.78337e-08, Final residual = 7.04732e-09, No Iterations 2
smoothSolver:  Solving for Uy, Initial residual = 1.55487e-07, Final residual = 3.89367e-09, No Iterations 4
GAMG:  Solving for p, Initial residual = 4.21192e-06, Final residual = 4.70537e-07, No Iterations 1
time step continuity errors : sum local = 1.12487e-07, global = 1.77063e-16, cumulative = 4.65718e-14
smoothSolver:  Solving for nuTilda, Initial residual = 1.72542e-08, Final residual = 8.71091e-10, No Iterations 2
ExecutionTime = 373.68 s  ClockTime = 374 s

Time = 4977

smoothSolver:  Solving for Ux, Initial residual = 5.70875e-08, Final residual = 7.16217e-09, No Iterations 2
smoothSolver:  Solving for Uy, Initial residual = 1.48786e-07, Final residual = 3.67746e-09, No Iterations 4
GAMG:  Solving for p, Initial residual = 4.26814e-06, Final residual = 4.73604e-07, No Iterations 1
time step continuity errors : sum local = 1.1302e-07, global = 1.11749e-16, cumulative = 4.66835e-14
smoothSolver:  Solving for nuTilda, Initial residual = 1.06032e-08, Final residual = 9.4397e-10, No Iterations 2
ExecutionTime = 373.75 s  ClockTime = 374 s

Time = 4978

smoothSolver:  Solving for Ux, Initial residual = 5.7813e-08, Final residual = 7.0429e-09, No Iterations 2
smoothSolver:  Solving for Uy, Initial residual = 1.5551e-07, Final residual = 3.89575e-09, No Iterations 4
GAMG:  Solving for p, Initial residual = 4.21199e-06, Final residual = 4.70538e-07, No Iterations 1
time step continuity errors : sum local = 1.12485e-07, global = -9.23879e-17, cumulative = 4.65911e-14
smoothSolver:  Solving for nuTilda, Initial residual = 1.72458e-08, Final residual = 8.68895e-10, No Iterations 2
ExecutionTime = 373.81 s  ClockTime = 374 s

Time = 4979

smoothSolver:  Solving for Ux, Initial residual = 5.70725e-08, Final residual = 7.15952e-09, No Iterations 2
smoothSolver:  Solving for Uy, Initial residual = 1.48814e-07, Final residual = 3.67927e-09, No Iterations 4
GAMG:  Solving for p, Initial residual = 4.26818e-06, Final residual = 4.7363e-07, No Iterations 1
time step continuity errors : sum local = 1.13024e-07, global = -6.29507e-17, cumulative = 4.65282e-14
smoothSolver:  Solving for nuTilda, Initial residual = 1.05949e-08, Final residual = 9.41802e-10, No Iterations 2
ExecutionTime = 373.88 s  ClockTime = 374 s

Time = 4980

smoothSolver:  Solving for Ux, Initial residual = 5.77926e-08, Final residual = 7.03849e-09, No Iterations 2
smoothSolver:  Solving for Uy, Initial residual = 1.55533e-07, Final residual = 3.89782e-09, No Iterations 4
GAMG:  Solving for p, Initial residual = 4.21206e-06, Final residual = 4.70538e-07, No Iterations 1
time step continuity errors : sum local = 1.12484e-07, global = -7.2424e-17, cumulative = 4.64558e-14
smoothSolver:  Solving for nuTilda, Initial residual = 1.72374e-08, Final residual = 8.66702e-10, No Iterations 2
ExecutionTime = 373.94 s  ClockTime = 374 s

forces wings output:
    sum of forces:
        pressure : (2.29549 32.1561 2.18411e-19)
        viscous  : (0.108528 -0.0180591 -1.03957e-20)
        porous   : (0 0 0)
    sum of moments:
        pressure : (-1.6078 0.114775 3.93146)
        viscous  : (0.000902954 0.00542638 -0.0100211)
        porous   : (0 0 0)

Time = 4981

smoothSolver:  Solving for Ux, Initial residual = 5.70577e-08, Final residual = 7.15691e-09, No Iterations 2
smoothSolver:  Solving for Uy, Initial residual = 1.48843e-07, Final residual = 3.68109e-09, No Iterations 4
GAMG:  Solving for p, Initial residual = 4.26822e-06, Final residual = 4.73654e-07, No Iterations 1
time step continuity errors : sum local = 1.13028e-07, global = -1.95726e-16, cumulative = 4.626e-14
smoothSolver:  Solving for nuTilda, Initial residual = 1.05866e-08, Final residual = 9.39643e-10, No Iterations 2
ExecutionTime = 374.01 s  ClockTime = 375 s

Time = 4982

smoothSolver:  Solving for Ux, Initial residual = 5.77723e-08, Final residual = 7.0341e-09, No Iterations 2
smoothSolver:  Solving for Uy, Initial residual = 1.55555e-07, Final residual = 3.89987e-09, No Iterations 4
GAMG:  Solving for p, Initial residual = 4.21213e-06, Final residual = 4.70538e-07, No Iterations 1
time step continuity errors : sum local = 1.12482e-07, global = -2.8668e-17, cumulative = 4.62314e-14
smoothSolver:  Solving for nuTilda, Initial residual = 1.72291e-08, Final residual = 8.64506e-10, No Iterations 2
ExecutionTime = 374.07 s  ClockTime = 375 s

Time = 4983

smoothSolver:  Solving for Ux, Initial residual = 5.7043e-08, Final residual = 7.15431e-09, No Iterations 2
smoothSolver:  Solving for Uy, Initial residual = 1.48872e-07, Final residual = 3.68292e-09, No Iterations 4
GAMG:  Solving for p, Initial residual = 4.26826e-06, Final residual = 4.73678e-07, No Iterations 1
time step continuity errors : sum local = 1.13032e-07, global = -1.7904e-16, cumulative = 4.60523e-14
smoothSolver:  Solving for nuTilda, Initial residual = 1.05783e-08, Final residual = 9.37485e-10, No Iterations 2
ExecutionTime = 374.14 s  ClockTime = 375 s

Time = 4984

smoothSolver:  Solving for Ux, Initial residual = 5.77519e-08, Final residual = 7.02971e-09, No Iterations 2
smoothSolver:  Solving for Uy, Initial residual = 1.55577e-07, Final residual = 3.90191e-09, No Iterations 4
GAMG:  Solving for p, Initial residual = 4.21219e-06, Final residual = 4.70539e-07, No Iterations 1
time step continuity errors : sum local = 1.1248e-07, global = -9.97109e-17, cumulative = 4.59526e-14
smoothSolver:  Solving for nuTilda, Initial residual = 1.72207e-08, Final residual = 8.62309e-10, No Iterations 2
ExecutionTime = 374.21 s  ClockTime = 375 s

Time = 4985

smoothSolver:  Solving for Ux, Initial residual = 5.70285e-08, Final residual = 7.15173e-09, No Iterations 2
smoothSolver:  Solving for Uy, Initial residual = 1.489e-07, Final residual = 3.68478e-09, No Iterations 4
GAMG:  Solving for p, Initial residual = 4.2683e-06, Final residual = 4.73702e-07, No Iterations 1
time step continuity errors : sum local = 1.13036e-07, global = -2.61446e-17, cumulative = 4.59265e-14
smoothSolver:  Solving for nuTilda, Initial residual = 1.05701e-08, Final residual = 9.35327e-10, No Iterations 2
ExecutionTime = 374.27 s  ClockTime = 375 s

forces wings output:
    sum of forces:
        pressure : (2.29551 32.1559 2.18418e-19)
        viscous  : (0.108521 -0.0180649 -1.04198e-20)
        porous   : (0 0 0)
    sum of moments:
        pressure : (-1.60779 0.114775 3.93149)
        viscous  : (0.000903246 0.00542605 -0.0100195)
        porous   : (0 0 0)

Time = 4986

smoothSolver:  Solving for Ux, Initial residual = 5.77316e-08, Final residual = 7.02533e-09, No Iterations 2
smoothSolver:  Solving for Uy, Initial residual = 1.55598e-07, Final residual = 3.90395e-09, No Iterations 4
GAMG:  Solving for p, Initial residual = 4.21226e-06, Final residual = 4.7054e-07, No Iterations 1
time step continuity errors : sum local = 1.12478e-07, global = 1.41479e-17, cumulative = 4.59406e-14
smoothSolver:  Solving for nuTilda, Initial residual = 1.72123e-08, Final residual = 8.60115e-10, No Iterations 2
ExecutionTime = 374.34 s  ClockTime = 375 s

Time = 4987

smoothSolver:  Solving for Ux, Initial residual = 5.7014e-08, Final residual = 7.14918e-09, No Iterations 2
smoothSolver:  Solving for Uy, Initial residual = 1.4893e-07, Final residual = 3.68667e-09, No Iterations 4
GAMG:  Solving for p, Initial residual = 4.26834e-06, Final residual = 4.73724e-07, No Iterations 1
time step continuity errors : sum local = 1.13039e-07, global = -4.99714e-17, cumulative = 4.58906e-14
smoothSolver:  Solving for nuTilda, Initial residual = 1.05618e-08, Final residual = 9.33172e-10, No Iterations 2
ExecutionTime = 374.4 s  ClockTime = 375 s

Time = 4988

smoothSolver:  Solving for Ux, Initial residual = 5.77115e-08, Final residual = 7.02096e-09, No Iterations 2
smoothSolver:  Solving for Uy, Initial residual = 1.55618e-07, Final residual = 3.90592e-09, No Iterations 4
GAMG:  Solving for p, Initial residual = 4.21233e-06, Final residual = 4.70543e-07, No Iterations 1
time step continuity errors : sum local = 1.12477e-07, global = 9.70579e-18, cumulative = 4.59003e-14
smoothSolver:  Solving for nuTilda, Initial residual = 1.72039e-08, Final residual = 8.57925e-10, No Iterations 2
ExecutionTime = 374.46 s  ClockTime = 375 s

Time = 4989

smoothSolver:  Solving for Ux, Initial residual = 5.69995e-08, Final residual = 7.14667e-09, No Iterations 2
smoothSolver:  Solving for Uy, Initial residual = 1.48959e-07, Final residual = 3.68862e-09, No Iterations 4
GAMG:  Solving for p, Initial residual = 4.26839e-06, Final residual = 4.7375e-07, No Iterations 1
time step continuity errors : sum local = 1.13044e-07, global = -4.26946e-17, cumulative = 4.58576e-14
smoothSolver:  Solving for nuTilda, Initial residual = 1.05535e-08, Final residual = 9.31018e-10, No Iterations 2
ExecutionTime = 374.53 s  ClockTime = 375 s

Time = 4990

smoothSolver:  Solving for Ux, Initial residual = 5.76914e-08, Final residual = 7.01659e-09, No Iterations 2
smoothSolver:  Solving for Uy, Initial residual = 1.55638e-07, Final residual = 3.9079e-09, No Iterations 4
GAMG:  Solving for p, Initial residual = 4.2124e-06, Final residual = 4.70549e-07, No Iterations 1
time step continuity errors : sum local = 1.12477e-07, global = -1.22978e-16, cumulative = 4.57347e-14
smoothSolver:  Solving for nuTilda, Initial residual = 1.71955e-08, Final residual = 8.55739e-10, No Iterations 2
ExecutionTime = 374.59 s  ClockTime = 375 s

forces wings output:
    sum of forces:
        pressure : (2.29549 32.1561 2.18411e-19)
        viscous  : (0.108527 -0.0180591 -1.03957e-20)
        porous   : (0 0 0)
    sum of moments:
        pressure : (-1.6078 0.114775 3.93146)
        viscous  : (0.000902953 0.00542637 -0.0100211)
        porous   : (0 0 0)

Time = 4991

smoothSolver:  Solving for Ux, Initial residual = 5.6985e-08, Final residual = 7.14421e-09, No Iterations 2
smoothSolver:  Solving for Uy, Initial residual = 1.48989e-07, Final residual = 3.69055e-09, No Iterations 4
GAMG:  Solving for p, Initial residual = 4.26843e-06, Final residual = 4.7378e-07, No Iterations 1
time step continuity errors : sum local = 1.13049e-07, global = 5.47529e-17, cumulative = 4.57894e-14
smoothSolver:  Solving for nuTilda, Initial residual = 1.05453e-08, Final residual = 9.28867e-10, No Iterations 2
ExecutionTime = 374.66 s  ClockTime = 375 s

Time = 4992

smoothSolver:  Solving for Ux, Initial residual = 5.76713e-08, Final residual = 7.01223e-09, No Iterations 2
smoothSolver:  Solving for Uy, Initial residual = 1.55659e-07, Final residual = 3.9099e-09, No Iterations 4
GAMG:  Solving for p, Initial residual = 4.21247e-06, Final residual = 4.70557e-07, No Iterations 1
time step continuity errors : sum local = 1.12477e-07, global = -2.96761e-16, cumulative = 4.54927e-14
smoothSolver:  Solving for nuTilda, Initial residual = 1.71872e-08, Final residual = 8.53567e-10, No Iterations 2
ExecutionTime = 374.73 s  ClockTime = 375 s

Time = 4993

smoothSolver:  Solving for Ux, Initial residual = 5.69707e-08, Final residual = 7.14176e-09, No Iterations 2
smoothSolver:  Solving for Uy, Initial residual = 1.49018e-07, Final residual = 3.69247e-09, No Iterations 4
GAMG:  Solving for p, Initial residual = 4.26848e-06, Final residual = 4.73811e-07, No Iterations 1
time step continuity errors : sum local = 1.13055e-07, global = -2.77663e-16, cumulative = 4.5215e-14
smoothSolver:  Solving for nuTilda, Initial residual = 1.0537e-08, Final residual = 9.26724e-10, No Iterations 2
ExecutionTime = 374.79 s  ClockTime = 375 s

Time = 4994

smoothSolver:  Solving for Ux, Initial residual = 5.76514e-08, Final residual = 7.00791e-09, No Iterations 2
smoothSolver:  Solving for Uy, Initial residual = 1.5568e-07, Final residual = 3.9119e-09, No Iterations 4
GAMG:  Solving for p, Initial residual = 4.21254e-06, Final residual = 4.70565e-07, No Iterations 1
time step continuity errors : sum local = 1.12477e-07, global = 2.86264e-17, cumulative = 4.52436e-14
smoothSolver:  Solving for nuTilda, Initial residual = 1.71788e-08, Final residual = 8.51398e-10, No Iterations 2
ExecutionTime = 374.86 s  ClockTime = 375 s

Time = 4995

smoothSolver:  Solving for Ux, Initial residual = 5.69563e-08, Final residual = 7.13938e-09, No Iterations 2
smoothSolver:  Solving for Uy, Initial residual = 1.49048e-07, Final residual = 3.69437e-09, No Iterations 4
GAMG:  Solving for p, Initial residual = 4.26853e-06, Final residual = 4.73843e-07, No Iterations 1
time step continuity errors : sum local = 1.1306e-07, global = -1.76997e-16, cumulative = 4.50666e-14
smoothSolver:  Solving for nuTilda, Initial residual = 1.05288e-08, Final residual = 9.24586e-10, No Iterations 2
ExecutionTime = 374.92 s  ClockTime = 375 s

forces wings output:
    sum of forces:
        pressure : (2.29551 32.1559 2.18418e-19)
        viscous  : (0.108521 -0.0180649 -1.04198e-20)
        porous   : (0 0 0)
    sum of moments:
        pressure : (-1.60779 0.114775 3.93149)
        viscous  : (0.000903245 0.00542604 -0.0100195)
        porous   : (0 0 0)

Time = 4996

smoothSolver:  Solving for Ux, Initial residual = 5.76316e-08, Final residual = 7.00365e-09, No Iterations 2
smoothSolver:  Solving for Uy, Initial residual = 1.55701e-07, Final residual = 3.91389e-09, No Iterations 4
GAMG:  Solving for p, Initial residual = 4.21262e-06, Final residual = 4.70574e-07, No Iterations 1
time step continuity errors : sum local = 1.12477e-07, global = 5.92499e-17, cumulative = 4.51259e-14
smoothSolver:  Solving for nuTilda, Initial residual = 1.71705e-08, Final residual = 8.49229e-10, No Iterations 2
ExecutionTime = 374.99 s  ClockTime = 375 s

Time = 4997

smoothSolver:  Solving for Ux, Initial residual = 5.69422e-08, Final residual = 7.13702e-09, No Iterations 2
smoothSolver:  Solving for Uy, Initial residual = 1.49076e-07, Final residual = 3.69622e-09, No Iterations 4
GAMG:  Solving for p, Initial residual = 4.26858e-06, Final residual = 4.73875e-07, No Iterations 1
time step continuity errors : sum local = 1.13066e-07, global = 3.72654e-17, cumulative = 4.51631e-14
smoothSolver:  Solving for nuTilda, Initial residual = 1.05205e-08, Final residual = 9.22447e-10, No Iterations 2
ExecutionTime = 375.05 s  ClockTime = 376 s

Time = 4998

smoothSolver:  Solving for Ux, Initial residual = 5.7612e-08, Final residual = 6.99945e-09, No Iterations 2
smoothSolver:  Solving for Uy, Initial residual = 1.55722e-07, Final residual = 3.91585e-09, No Iterations 4
GAMG:  Solving for p, Initial residual = 4.21269e-06, Final residual = 4.70582e-07, No Iterations 1
time step continuity errors : sum local = 1.12477e-07, global = 9.16268e-18, cumulative = 4.51723e-14
smoothSolver:  Solving for nuTilda, Initial residual = 1.71621e-08, Final residual = 8.47057e-10, No Iterations 2
ExecutionTime = 375.12 s  ClockTime = 376 s

Time = 4999

smoothSolver:  Solving for Ux, Initial residual = 5.69283e-08, Final residual = 7.13471e-09, No Iterations 2
smoothSolver:  Solving for Uy, Initial residual = 1.49105e-07, Final residual = 3.69803e-09, No Iterations 4
GAMG:  Solving for p, Initial residual = 4.26862e-06, Final residual = 4.73905e-07, No Iterations 1
time step continuity errors : sum local = 1.13072e-07, global = -3.52898e-17, cumulative = 4.5137e-14
smoothSolver:  Solving for nuTilda, Initial residual = 1.05122e-08, Final residual = 9.20307e-10, No Iterations 2
ExecutionTime = 375.19 s  ClockTime = 376 s

Time = 5000

smoothSolver:  Solving for Ux, Initial residual = 5.75927e-08, Final residual = 6.99538e-09, No Iterations 2
smoothSolver:  Solving for Uy, Initial residual = 1.55742e-07, Final residual = 3.91778e-09, No Iterations 4
GAMG:  Solving for p, Initial residual = 4.21276e-06, Final residual = 4.70588e-07, No Iterations 1
time step continuity errors : sum local = 1.12477e-07, global = -5.59708e-17, cumulative = 4.5081e-14
smoothSolver:  Solving for nuTilda, Initial residual = 1.71538e-08, Final residual = 8.44884e-10, No Iterations 2
ExecutionTime = 375.39 s  ClockTime = 376 s

forces wings output:
    sum of forces:
        pressure : (2.29549 32.1561 2.18411e-19)
        viscous  : (0.108527 -0.018059 -1.03957e-20)
        porous   : (0 0 0)
    sum of moments:
        pressure : (-1.6078 0.114775 3.93146)
        viscous  : (0.000902952 0.00542637 -0.0100211)
        porous   : (0 0 0)

End

